@<TRIPOS>MOLECULE
mol
37500 30000
SMALL
USER_CHARGES


@<TRIPOS>ATOM
1 C 5.9470394498362396 86.10606460745893 103.18827081275526 C 0.0 **** -0.24
2 H 6.074519704297586 86.78522185020226 102.34558676997617 H 0.0 **** 0.06
3 H 6.923223184282108 85.84940146237477 103.59912299764238 H 0.0 **** 0.06
4 H 5.444434273649108 85.19976665506583 102.85097830817216 H 0.0 **** 0.06
5 H 5.345253274323483 86.59103892799469 103.95707735603898 H 0.0 **** 0.06
6 C 9.064193489718477 102.26279221216953 3.7150821977170665 C 0.0 **** -0.24
7 H 8.290340646023353 101.52774789901108 3.935174915453217 H 0.0 **** 0.06
8 H 9.464071756199075 102.08305463651715 2.7165337539430254 H 0.0 **** 0.06
9 H 9.86652008762232 102.17586100468216 4.448320360528669 H 0.0 **** 0.06
10 H 8.636640455555757 103.26476763599044 3.760840901158673 H 0.0 **** 0.06
11 C 92.06665057674832 33.33216650909392 32.19177704145889 C 0.0 **** -0.24
12 H 92.52405479851035 33.96213578011776 31.429105244024598 H 0.0 **** 0.06
13 H 92.44306700977631 32.31310653544662 32.094382649793076 H 0.0 **** 0.06
14 H 90.98438332721071 33.33273017997169 32.062195145965305 H 0.0 **** 0.06
15 H 92.31531542936034 33.71914481117307 33.17982702105485 H 0.0 **** 0.06
16 C 108.6080672201748 8.723124832130509 80.46387973479162 C 0.0 **** -0.24
17 H 108.59967898783509 7.9074229283595585 81.18671251065629 H 0.0 **** 0.06
18 H 109.56655064195013 9.240248659118578 80.51043795195127 H 0.0 **** 0.06
19 H 107.80465221609643 9.422624689463895 80.69678849701326 H 0.0 **** 0.06
20 H 108.46024057511306 8.32092642063212 79.46134348987508 H 0.0 **** 0.06
21 C 78.59526661795996 40.9088067161951 161.77094424684464 C 0.0 **** -0.24
22 H 77.90465150008231 40.342579151888444 162.3956115824492 H 0.0 **** 0.06
23 H 78.0479089116784 41.6842122442623 161.23397588298184 H 0.0 **** 0.06
24 H 79.07135881024891 40.23851484378919 161.05612805918557 H 0.0 **** 0.06
25 H 79.35684158972077 41.370983395574655 162.39894302168065 H 0.0 **** 0.06
26 C 126.43063912815722 20.42819901151303 172.63990038711182 C 0.0 **** -0.24
27 H 126.82025907432944 20.369203605791768 171.62274598658198 H 0.0 **** 0.06
28 H 125.34288401929285 20.49434260553432 172.6082294742336 H 0.0 **** 0.06
29 H 126.83504576649085 21.31150448045043 173.13255123615778 H 0.0 **** 0.06
30 H 126.72537094981743 19.53641153144715 173.19217423434816 H 0.0 **** 0.06
31 C 158.33257266894344 69.54509665408278 36.435945811498044 C 0.0 **** -0.24
32 H 158.6331587237054 70.57826451918476 36.6120889098608 H 0.0 **** 0.06
33 H 157.27659593232988 69.51472552625188 36.16810275768543 H 0.0 **** 0.06
34 H 158.49615632387994 68.95984921627769 37.340465015601694 H 0.0 **** 0.06
35 H 158.92627414094488 69.12904823423281 35.62134929258417 H 0.0 **** 0.06
36 C 124.74355731416244 149.85420633014638 126.07553775464882 C 0.0 **** -0.24
37 H 125.47216684121867 150.63046348868215 125.84125977367702 H 0.0 **** 0.06
38 H 125.25151646382662 148.8938006173344 126.16311374003041 H 0.0 **** 0.06
39 H 124.00036957275691 149.80163404173317 125.27936293388512 H 0.0 **** 0.06
40 H 124.24981072236048 150.09255835937358 127.01796112904549 H 0.0 **** 0.06
41 C 140.60220866918925 122.84106430687342 16.447942421981054 C 0.0 **** -0.24
42 H 141.5141352374938 123.04628763184968 15.88887225179485 H 0.0 **** 0.06
43 H 140.3646637368587 123.69375537403525 17.084269808673582 H 0.0 **** 0.06
44 H 140.74649788128932 121.95448171462479 17.066037995022896 H 0.0 **** 0.06
45 H 139.78143063512658 122.6678117897309 15.751656431581495 H 0.0 **** 0.06
46 C 164.00403681738192 137.2840978006874 49.916310579198864 C 0.0 **** -0.24
47 H 163.70741097292608 137.87496981857524 50.78319728808869 H 0.0 **** 0.06
48 H 163.46801331186924 136.33497157947403 49.923820971582316 H 0.0 **** 0.06
49 H 165.07689001303666 137.0966222138745 49.95551642887163 H 0.0 **** 0.06
50 H 163.76376445800364 137.8306883427656 49.00499991522507 H 0.0 **** 0.06
51 C 31.660217630516257 96.11328519497519 119.43572164276776 C 0.0 **** -0.24
52 H 31.277867486417136 96.88111280232653 120.10832205818869 H 0.0 **** 0.06
53 H 31.004332718353112 96.03099089000139 118.56941696431261 H 0.0 **** 0.06
54 H 31.69399278154785 95.15704824082414 119.95944424066346 H 0.0 **** 0.06
55 H 32.66425861695251 96.38394992944484 119.10899318628358 H 0.0 **** 0.06
56 C 35.146875996991966 148.41492721450848 93.33820988274186 C 0.0 **** -0.24
57 H 35.110125785812585 149.37196143609964 93.85979797662907 H 0.0 **** 0.06
58 H 36.18043744975378 148.07391867998226 93.27893015346694 H 0.0 **** 0.06
59 H 34.74409954020389 148.534761324261 92.33283130891954 H 0.0 **** 0.06
60 H 34.55212427670182 147.6823995561164 93.88380662312755 H 0.0 **** 0.06
61 C 124.7261295774652 98.30291319414584 145.650651257872 C 0.0 **** -0.24
62 H 125.47549761277423 98.19603650579788 144.86625396669817 H 0.0 **** 0.06
63 H 124.45867636948373 97.31886703382852 146.03362524847887 H 0.0 **** 0.06
64 H 123.84007768877805 98.78790828457684 145.24165494565258 H 0.0 **** 0.06
65 H 125.13282108129584 98.91052764386114 146.45944907206018 H 0.0 **** 0.06
66 C 43.13059137821216 46.29141061624722 27.105510681906793 C 0.0 **** -0.24
67 H 42.77660244150047 45.6737351129637 27.931273969713715 H 0.0 **** 0.06
68 H 43.80679642306214 45.70739586447402 26.47988400596182 H 0.0 **** 0.06
69 H 43.65863184017394 47.15904972045408 27.50132610070176 H 0.0 **** 0.06
70 H 42.280024104449325 46.622733754453975 26.510238087565426 H 0.0 **** 0.06
71 C 155.231986848193 150.08703027921678 94.94396624421455 C 0.0 **** -0.24
72 H 155.61916406357636 149.45998237954925 95.7471367880868 H 0.0 **** 0.06
73 H 154.44575705164462 150.73273173627194 95.33505001847212 H 0.0 **** 0.06
74 H 154.82546461092014 149.45604029409796 94.1537830465941 H 0.0 **** 0.06
75 H 156.03816342887214 150.6999060003024 94.54105577039863 H 0.0 **** 0.06
76 C 70.0986805235925 116.3648457735813 170.06118653148906 C 0.0 **** -0.24
77 H 70.15667082882203 117.4533911349493 170.09450832797222 H 0.0 **** 0.06
78 H 69.91307665913901 116.0417439617392 169.03699582583985 H 0.0 **** 0.06
79 H 69.28535002344317 116.02498318260854 170.70317105720775 H 0.0 **** 0.06
80 H 71.0397031809354 115.94082390760644 170.41167191223522 H 0.0 **** 0.06
81 C 7.42777593434775 133.76803583908998 5.1308350680562285 C 0.0 **** -0.24
82 H 7.82786140365792 134.7652474341673 5.319044758923724 H 0.0 **** 0.06
83 H 8.238969757207428 133.09916981360197 4.844330286327931 H 0.0 **** 0.06
84 H 6.694521431017307 133.81839432626754 4.3259741867557295 H 0.0 **** 0.06
85 H 6.94885676426 133.39320388374767 6.035476777581891 H 0.0 **** 0.06
86 C 5.560845887085435 76.15211744995177 146.83163641101075 C 0.0 **** -0.24
87 H 5.817363097366609 75.18516691219395 147.26361412308987 H 0.0 **** 0.06
88 H 5.548342214691047 76.90844591273829 147.6169166925474 H 0.0 **** 0.06
89 H 4.575916945953935 76.09189985779331 146.36795222471565 H 0.0 **** 0.06
90 H 6.3007463478826935 76.4215560836568 146.07797845521355 H 0.0 **** 0.06
91 C 125.8833417603565 89.29592220628513 30.212096898606887 C 0.0 **** -0.24
92 H 126.28855124849755 89.92996449536908 29.423370813886322 H 0.0 **** 0.06
93 H 126.66675260134383 89.0743544132612 30.938142630238815 H 0.0 **** 0.06
94 H 125.5165696293304 88.36608439669016 29.778195968816675 H 0.0 **** 0.06
95 H 125.06376030320061 89.81326603480504 30.709606445136785 H 0.0 **** 0.06
96 C 100.5788650394783 150.05472569187626 47.788827467344845 C 0.0 **** -0.24
97 H 99.8750787816399 150.33271545974438 47.00327936487295 H 0.0 **** 0.06
98 H 101.43319655940871 150.73136349556708 47.766241514119 H 0.0 **** 0.06
99 H 100.91946450027456 149.0320999091224 47.62588052218992 H 0.0 **** 0.06
100 H 100.08528030949367 150.123350239651 48.75775106811621 H 0.0 **** 0.06
101 C 114.47780740884457 136.7608776359509 47.15515722805495 C 0.0 **** -0.24
102 H 113.60994227512651 137.01993448939797 47.760677507922196 H 0.0 **** 0.06
103 H 114.99500100018446 137.67117101381973 46.852728846644936 H 0.0 **** 0.06
104 H 114.15176324946484 136.21554688069833 46.26889835636291 H 0.0 **** 0.06
105 H 115.15300082646525 136.1352469212359 47.73861865106619 H 0.0 **** 0.06
106 C 24.549876571356265 21.049649032984945 157.45186555798185 C 0.0 **** -0.24
107 H 23.869154340670036 21.12496669060431 158.30056027025148 H 0.0 **** 0.06
108 H 25.573027192285224 20.951804014777508 157.81478613451873 H 0.0 **** 0.06
109 H 24.464945892352546 21.945410307060172 156.8382975928794 H 0.0 **** 0.06
110 H 24.290196064027782 20.17470588683858 156.85496460958132 H 0.0 **** 0.06
111 C 143.5233639387631 68.46199577272444 50.27364726873812 C 0.0 **** -0.24
112 H 143.86659638936715 67.62301794940274 49.66808728820699 H 0.0 **** 0.06
113 H 144.37716905367208 68.92354026856322 50.76981124510533 H 0.0 **** 0.06
114 H 142.81690670242259 68.1045696523177 51.02264921755878 H 0.0 **** 0.06
115 H 143.03478094049638 69.1965784672162 49.63307477534018 H 0.0 **** 0.06
116 C 45.93230579114612 12.038046949769601 25.200015401042066 C 0.0 **** -0.24
117 H 45.611961125175554 12.736397873826299 24.426940719740998 H 0.0 **** 0.06
118 H 45.688398902715406 12.446118229393349 26.181923493942918 H 0.0 **** 0.06
119 H 47.00907401801513 11.885630087060996 25.127610532292096 H 0.0 **** 0.06
120 H 45.42026147847008 11.085786272605056 25.065240095022972 H 0.0 **** 0.06
121 C 19.44817642948908 128.23138623165977 167.6604224631614 C 0.0 **** -0.24
122 H 18.62171104424317 128.69532854719375 168.19891915250906 H 0.0 **** 0.06
123 H 19.247106986763413 127.16715385169897 167.53380598649855 H 0.0 **** 0.06
124 H 20.370109055278363 128.36181508047474 168.22784449066083 H 0.0 **** 0.06
125 H 19.554224037870995 128.70041759491482 166.68217521788083 H 0.0 **** 0.06
126 C 41.46450697622865 13.210468309774598 36.89407780202228 C 0.0 **** -0.24
127 H 42.53861897951178 13.39656089436258 36.91001998858272 H 0.0 **** 0.06
128 H 41.27533183874395 12.20996020879474 36.50412971124922 H 0.0 **** 0.06
129 H 40.9769622491079 13.947476004444496 36.25632944402676 H 0.0 **** 0.06
130 H 41.068190409877786 13.2865326101184 37.907259731606246 H 0.0 **** 0.06
131 C 141.36485776185518 171.3367068414571 78.54247685282677 C 0.0 **** -0.24
132 H 142.02896790355894 170.52860124342328 78.84949680936876 H 0.0 **** 0.06
133 H 140.48080366225298 171.34194336119214 79.18036016757868 H 0.0 **** 0.06
134 H 141.06440132377742 171.18577082064127 77.50549496320232 H 0.0 **** 0.06
135 H 141.88587152213347 172.2897779691346 78.63484718693356 H 0.0 **** 0.06
136 C 124.52823941393916 141.75833886046718 57.76800077459728 C 0.0 **** -0.24
137 H 125.61193626020122 141.84535080210946 57.701870575054556 H 0.0 **** 0.06
138 H 124.095217310202 142.74184661789877 57.95522679456826 H 0.0 **** 0.06
139 H 124.26629517169732 141.08449563906458 58.583279065216516 H 0.0 **** 0.06
140 H 124.1380911123563 141.36289403309138 56.83041298456277 H 0.0 **** 0.06
141 C 7.282669766507546 170.0466436601845 148.44715502967085 C 0.0 **** -0.24
142 H 6.693824493525661 170.8924055018996 148.09217005028486 H 0.0 **** 0.06
143 H 7.797590936423418 170.32350805458952 149.3675812925909 H 0.0 **** 0.06
144 H 8.014531070631449 169.76972462674615 147.68954958201886 H 0.0 **** 0.06
145 H 6.62221645442591 169.20070426023455 148.6405902143236 H 0.0 **** 0.06
146 C 9.84822532294416 43.943949639036646 117.72498471994209 C 0.0 **** -0.24
147 H 10.873223464823354 43.659674087802216 117.96207835633015 H 0.0 **** 0.06
148 H 9.676401711170712 43.82150062540029 116.65480664229361 H 0.0 **** 0.06
149 H 9.686339351119784 44.9852448115839 118.00211367629436 H 0.0 **** 0.06
150 H 9.158215881892716 43.30829694633252 118.2791532748862 H 0.0 **** 0.06
151 C 90.03629512639253 133.58594046059068 100.60980422062599 C 0.0 **** -0.24
152 H 90.02078058654155 134.46234377988594 99.96271560496118 H 0.0 **** 0.06
153 H 90.25709021381786 133.8935760413575 101.63279450113635 H 0.0 **** 0.06
154 H 90.80417067703124 132.89328011168593 100.2651203538197 H 0.0 **** 0.06
155 H 89.06371175967917 133.0948415017064 100.58019697857333 H 0.0 **** 0.06
156 C 154.92930113814475 73.18178866857409 127.415960385451 C 0.0 **** -0.24
157 H 154.76977094865697 72.80031862357222 126.40791977076839 H 0.0 **** 0.06
158 H 155.09717994074066 74.25839106337821 127.37435268338737 H 0.0 **** 0.06
159 H 155.7991063160261 72.69418778737098 127.85589505261845 H 0.0 **** 0.06
160 H 154.04977044400323 72.97441741902769 128.02539381470712 H 0.0 **** 0.06
161 C 10.569563458527568 47.32828720305733 150.6510626407246 C 0.0 **** -0.24
162 H 10.31586307521792 46.845073999631055 151.5937520150263 H 0.0 **** 0.06
163 H 9.955159809389158 46.91242668656349 149.85197353671782 H 0.0 **** 0.06
164 H 11.622827175963437 47.1564441563396 150.42763544066534 H 0.0 **** 0.06
165 H 10.385828873796697 48.39988439359149 150.73017809570004 H 0.0 **** 0.06
166 C 127.97848047579518 77.93432421177305 76.32012256164919 C 0.0 **** -0.24
167 H 127.05352767007662 77.46955749587401 75.97696600042082 H 0.0 **** 0.06
168 H 127.97055158864126 77.99465068040772 77.40891458254757 H 0.0 **** 0.06
169 H 128.0587779550814 78.93630673768725 75.90083451627072 H 0.0 **** 0.06
170 H 128.82816206267353 77.33482176187744 75.99509153557031 H 0.0 **** 0.06
171 C 132.92463997669324 9.767416460772438 121.80429527253801 C 0.0 **** -0.24
172 H 132.33428575292695 8.916099249500974 122.1430696505384 H 0.0 **** 0.06
173 H 133.9391775917225 9.439460126638323 121.57755917094869 H 0.0 **** 0.06
174 H 132.9540403445153 10.52442741251977 122.58784630225568 H 0.0 **** 0.06
175 H 132.47121489835155 10.189839234322278 120.90730982218764 H 0.0 **** 0.06
176 C 152.5602551367863 35.05383972980229 128.0027698215673 C 0.0 **** -0.24
177 H 153.33502861607673 35.37807772794952 127.307162177782 H 0.0 **** 0.06
178 H 151.58231037538704 35.34256178926171 127.61721203197402 H 0.0 **** 0.06
179 H 152.7220089617838 35.526875016337414 128.97133396562475 H 0.0 **** 0.06
180 H 152.60266169502174 33.97123904096236 128.11466516651143 H 0.0 **** 0.06
181 C 10.507879005991036 84.99974577149746 134.32695855323541 C 0.0 **** -0.24
182 H 11.178445601361311 85.85489385256408 134.23386490369123 H 0.0 **** 0.06
183 H 9.511903207210466 85.27999907579225 133.98328357129768 H 0.0 **** 0.06
184 H 10.458600826695239 84.68933904137668 135.37044573342223 H 0.0 **** 0.06
185 H 10.883844955312192 84.17657856225634 133.7200792308088 H 0.0 **** 0.06
186 C 96.37052732337935 40.449935514734136 118.61306811022112 C 0.0 **** -0.24
187 H 95.68899507729734 40.673075583043385 117.79142066257185 H 0.0 **** 0.06
188 H 96.3878364908052 41.29032075509542 119.30794022910655 H 0.0 **** 0.06
189 H 97.37251167268164 40.284004876535505 118.21907631603261 H 0.0 **** 0.06
190 H 96.03154330484898 39.554395910211156 119.13330442327515 H 0.0 **** 0.06
191 C 97.1060786014834 51.85016837723133 25.760499462726216 C 0.0 **** -0.24
192 H 97.51957936889877 51.910059049784536 24.753987965199144 H 0.0 **** 0.06
193 H 96.91812881470491 52.857064754727304 26.135420511944346 H 0.0 **** 0.06
194 H 97.81474794097892 51.34358025801093 26.41557840919208 H 0.0 **** 0.06
195 H 96.17004175468406 51.29122423458081 25.735949877820786 H 0.0 **** 0.06
196 C 59.094760945560694 116.97860518790742 86.2262098438736 C 0.0 **** -0.24
197 H 59.902238956735616 117.00421304617979 85.49405227774253 H 0.0 **** 0.06
198 H 59.51444693666305 117.03365306180677 87.23133900131648 H 0.0 **** 0.06
199 H 58.535244794396576 116.04856638704518 86.11635199814864 H 0.0 **** 0.06
200 H 58.4284797269015 117.82469462893502 86.06196264180277 H 0.0 **** 0.06
201 C 49.73140052294286 112.46747418317653 18.241382763205095 C 0.0 **** -0.24
202 H 48.72844649811596 112.34444776164153 17.83284157228743 H 0.0 **** 0.06
203 H 49.75267858278043 113.34017104252908 18.894155022563837 H 0.0 **** 0.06
204 H 50.44133487542521 112.6058227708445 17.425952160588096 H 0.0 **** 0.06
205 H 50.00198463214804 111.57870073582072 18.812280486825074 H 0.0 **** 0.06
206 C 56.34122682617898 88.04250861778813 153.2970311865858 C 0.0 **** -0.24
207 H 56.72230630466588 89.02937815015244 153.56117729129835 H 0.0 **** 0.06
208 H 56.20666962172923 87.4509928792994 154.20198789410733 H 0.0 **** 0.06
209 H 57.05241708803621 87.54362840742787 152.63826176754168 H 0.0 **** 0.06
210 H 55.38486089093753 88.14898639382322 152.78512410136778 H 0.0 **** 0.06
211 C 13.591567456647311 122.08640027580412 11.7323212942824 C 0.0 **** -0.24
212 H 13.249797225188843 121.12236696507006 12.109249767078872 H 0.0 **** 0.06
213 H 13.347068329445165 122.86542435153092 12.453870896611178 H 0.0 **** 0.06
214 H 13.09904421506485 122.30082439219007 10.783974662146257 H 0.0 **** 0.06
215 H 14.670762311720779 122.05624182332161 11.581655696824164 H 0.0 **** 0.06
216 C 114.77494622181081 109.14129671194237 168.83872051193993 C 0.0 **** -0.24
217 H 115.07162921768065 108.66813629475635 169.77456964175263 H 0.0 **** 0.06
218 H 115.60083850298605 109.09339987932847 168.1289008009749 H 0.0 **** 0.06
219 H 114.51444033561648 110.18363857169268 169.02519663352163 H 0.0 **** 0.06
220 H 113.91048601987853 108.61950200203384 168.42636985209822 H 0.0 **** 0.06
221 C 85.47893848106293 150.17787355432117 33.3497772626086 C 0.0 **** -0.24
222 H 85.34016925400834 149.9845612940271 32.28616753588197 H 0.0 **** 0.06
223 H 85.48647104072728 151.25403353837052 33.52490337450432 H 0.0 **** 0.06
224 H 86.42703621445014 149.74977010419016 33.67593722525359 H 0.0 **** 0.06
225 H 84.66301431676999 149.72338927507602 33.91107394157987 H 0.0 **** 0.06
226 C 85.54696163901724 118.01790172804249 69.66656927451686 C 0.0 **** -0.24
227 H 84.77673454220775 118.73934557760447 69.3956538836324 H 0.0 **** 0.06
228 H 85.74699093027837 118.08449541807829 70.73599423611358 H 0.0 **** 0.06
229 H 86.45913487275543 118.23598559900302 69.11120308857119 H 0.0 **** 0.06
230 H 85.20496246882978 117.01229274806147 69.42210797204245 H 0.0 **** 0.06
231 C 125.18351395792419 158.65125149129278 141.0332367864377 C 0.0 **** -0.24
232 H 125.4250402718294 159.3878096304685 140.26680261632265 H 0.0 **** 0.06
233 H 125.23962442701975 157.65051703397398 140.6045360113245 H 0.0 **** 0.06
234 H 124.17475570525835 158.8311253797322 141.40489032962586 H 0.0 **** 0.06
235 H 125.89461011262668 158.73590269429403 141.85534787019222 H 0.0 **** 0.06
236 C 86.00912202876309 69.57646146726869 78.14516626821391 C 0.0 **** -0.24
237 H 86.60193003317933 68.97760098132952 78.83481321071716 H 0.0 **** 0.06
238 H 86.62584218015533 69.86858567403794 77.29437432684468 H 0.0 **** 0.06
239 H 85.6479167558572 70.46917588150225 78.6561055215987 H 0.0 **** 0.06
240 H 85.15903731848961 68.99110141460652 77.79378642041426 H 0.0 **** 0.06
241 C 65.28431458292017 77.89776784430853 150.78337781773607 C 0.0 **** -0.24
242 H 65.46916803848532 78.9520093977491 150.57541110704335 H 0.0 **** 0.06
243 H 64.2707313890526 77.63884483922995 150.47343066515074 H 0.0 **** 0.06
244 H 65.3967241139487 77.71327014917193 151.85079002740463 H 0.0 **** 0.06
245 H 65.99922248640446 77.28855352137703 150.2308094795756 H 0.0 **** 0.06
246 C 27.524881641850243 40.59041244740939 145.3608596206198 C 0.0 **** -0.24
247 H 27.340450998802567 41.10581887422168 144.4182543268623 H 0.0 **** 0.06
248 H 28.526540916652152 40.83171346701482 145.71674823100219 H 0.0 **** 0.06
249 H 27.440848510505873 39.514868139393826 145.20932736825966 H 0.0 **** 0.06
250 H 26.789828099395265 40.911512773056444 146.09976021703636 H 0.0 **** 0.06
251 C 74.96514404127782 87.95437035176815 80.10238972389968 C 0.0 **** -0.24
252 H 74.1829724736985 87.40707767658012 79.57729018837364 H 0.0 **** 0.06
253 H 75.00420234520345 88.97797621892101 79.7301322106718 H 0.0 **** 0.06
254 H 75.92633396762426 87.46785270060627 79.93053879454874 H 0.0 **** 0.06
255 H 74.74862841299296 87.96317180842937 81.17033479937436 H 0.0 **** 0.06
256 C 25.31312173551904 37.94113762506521 11.429352035376702 C 0.0 **** -0.24
257 H 24.326464000239376 37.6488238395678 11.786626869204497 H 0.0 **** 0.06
258 H 26.057111030310416 37.235737971102395 11.799640363288056 H 0.0 **** 0.06
259 H 25.548598430866484 38.941852285941934 11.79113106876082 H 0.0 **** 0.06
260 H 25.32074918585115 37.93816623868193 10.33911022989929 H 0.0 **** 0.06
261 C 92.22960579213634 91.63187166425683 152.37466195708646 C 0.0 **** -0.24
262 H 91.71711241805201 91.58159328881356 151.41423455357523 H 0.0 **** 0.06
263 H 91.80761995441532 90.8890650370386 153.05094327936303 H 0.0 **** 0.06
264 H 92.1040668569077 92.62576957831968 152.80206580114793 H 0.0 **** 0.06
265 H 93.29130423922749 91.42996869709805 152.229994039036 H 0.0 **** 0.06
266 C 31.94695698463488 97.38315071487881 50.44337127569976 C 0.0 **** -0.24
267 H 31.2456349318565 97.21123976238721 49.626540692210554 H 0.0 **** 0.06
268 H 32.90598744925617 97.70417668502284 50.036400652226604 H 0.0 **** 0.06
269 H 32.080834878051604 96.45995994176673 51.0062714995656 H 0.0 **** 0.06
270 H 31.55362940204003 98.15709840611765 51.10329672585266 H 0.0 **** 0.06
271 C 90.95498299504021 30.373269940310323 21.919480813795452 C 0.0 **** -0.24
272 H 90.1974415085777 30.886964275260425 21.32781604079777 H 0.0 **** 0.06
273 H 90.47914623028993 29.60559441598967 22.529825677204997 H 0.0 **** 0.06
274 H 91.45847980901544 31.09158325844949 22.566532683357302 H 0.0 **** 0.06
275 H 91.68342019810751 29.910636462773965 21.253918887088844 H 0.0 **** 0.06
276 C 96.60131726296709 56.679231487632435 69.23611490561825 C 0.0 **** -0.24
277 H 96.48956032397885 56.91746853877966 70.29334792058836 H 0.0 **** 0.06
278 H 96.88246246490078 55.632003670986165 69.12702573443039 H 0.0 **** 0.06
279 H 97.37573895365705 57.31114041315445 68.80143762706211 H 0.0 **** 0.06
280 H 95.65613458549143 56.8573452804455 68.7224229820136 H 0.0 **** 0.06
281 C 96.92785144081643 102.38427586668146 82.47185565166798 C 0.0 **** -0.24
282 H 97.98835267748419 102.31495159402084 82.22894729936348 H 0.0 **** 0.06
283 H 96.71061945340747 103.37589492989093 82.8685936968137 H 0.0 **** 0.06
284 H 96.67602280170098 101.62975292381603 83.21788694006322 H 0.0 **** 0.06
285 H 96.33716631241288 102.21457231681103 81.57115925816123 H 0.0 **** 0.06
286 C 5.7259785242040095 39.15187558510388 111.24944182031902 C 0.0 **** -0.24
287 H 6.479888169962464 39.06203780977154 112.0309637846459 H 0.0 **** 0.06
288 H 5.857073701194565 38.34805052470929 110.5241201341326 H 0.0 **** 0.06
289 H 5.835373931892548 40.11500994581513 110.7491738099564 H 0.0 **** 0.06
290 H 4.732917881180583 39.08294313546851 111.6921257118509 H 0.0 **** 0.06
291 C 152.63142589728236 64.95772012695647 135.61764149484554 C 0.0 **** -0.24
292 H 152.02508698599445 65.64343792888803 135.0256994284705 H 0.0 **** 0.06
293 H 153.66662321325262 65.30033451610709 135.62177772809446 H 0.0 **** 0.06
294 H 152.58011638188827 63.959824006459485 135.18076063622127 H 0.0 **** 0.06
295 H 152.25361235107974 64.9282192770035 136.63931893446204 H 0.0 **** 0.06
296 C 143.47938238082372 120.61210284575307 110.42477334271928 C 0.0 **** -0.24
297 H 142.83392265530648 119.90239721625031 110.9418650517245 H 0.0 **** 0.06
298 H 144.49870081786747 120.51399073848157 110.79770378188226 H 0.0 **** 0.06
299 H 143.12227719244254 121.62625132161133 110.60583951299867 H 0.0 **** 0.06
300 H 143.46247675817114 120.40641941485686 109.35443194179169 H 0.0 **** 0.06
301 C 49.69066315892729 103.96406007571957 164.68656454900557 C 0.0 **** -0.24
302 H 49.36887141609202 104.07922718753235 165.72266293109445 H 0.0 **** 0.06
303 H 50.210525672927616 104.86736974316912 164.36629463833603 H 0.0 **** 0.06
304 H 48.819350433387285 103.80083111416789 164.0521714291526 H 0.0 **** 0.06
305 H 50.36304227811871 103.11079096810079 164.6081854390632 H 0.0 **** 0.06
306 C 37.88589342416651 113.6594046223309 145.7035719876838 C 0.0 **** -0.24
307 H 38.74345067544644 114.20757603915163 146.09200834877083 H 0.0 **** 0.06
308 H 37.179150350329024 114.35967271943036 145.25651712534193 H 0.0 **** 0.06
309 H 37.399111288372126 113.12134814336156 146.5162936690271 H 0.0 **** 0.06
310 H 38.220530827367156 112.94926916479454 144.94698515064096 H 0.0 **** 0.06
311 C 118.00201611285934 146.18021618818844 97.8160735135892 C 0.0 **** -0.24
312 H 118.533888133711 146.62703145180606 98.6565462862948 H 0.0 **** 0.06
313 H 118.17852488989425 145.10411140349265 97.80662042156774 H 0.0 **** 0.06
314 H 118.3629536823712 146.6163325556334 96.88493079995362 H 0.0 **** 0.06
315 H 116.93409841994242 146.37291034006307 97.91880593721635 H 0.0 **** 0.06
316 C 41.54481189805037 7.459503424088048 86.417979325551 C 0.0 **** -0.24
317 H 40.78371269786214 6.9706740098352284 87.02546839786159 H 0.0 **** 0.06
318 H 41.15173216194144 8.398665452580694 86.02935717579551 H 0.0 **** 0.06
319 H 41.81969311097535 6.80849299878512 85.58760353581995 H 0.0 **** 0.06
320 H 42.42527316386544 7.658307169577519 87.02912187746821 H 0.0 **** 0.06
321 C 170.68205877685853 1.181142609480105 32.56947986036221 C 0.0 **** -0.24
322 H 171.6267939257993 0.8499987159906084 33.00045364153617 H 0.0 **** 0.06
323 H 170.06582548686487 0.3117625196277345 32.33536655415455 H 0.0 **** 0.06
324 H 170.8761206986917 1.7455196016437355 31.65820123966124 H 0.0 **** 0.06
325 H 170.15888323006732 1.8145128065860945 33.28528199899719 H 0.0 **** 0.06
326 C 65.65561945224296 80.40461363718734 58.91010228510889 C 0.0 **** -0.24
327 H 66.3871301232632 79.68539977689643 59.27736475635335 H 0.0 **** 0.06
328 H 65.33457834397822 81.04766361226308 59.73060918278412 H 0.0 **** 0.06
329 H 64.79456522763721 79.87274636634392 58.506347419476526 H 0.0 **** 0.06
330 H 66.107016921614 81.01377135549346 58.125822720885 H 0.0 **** 0.06
331 C 91.97352796351751 36.00767473636216 127.95863702628873 C 0.0 **** -0.24
332 H 92.3830624183887 36.650240470905146 127.17925458453732 H 0.0 **** 0.06
333 H 91.62041010829631 36.621236526815096 128.78704023432078 H 0.0 **** 0.06
334 H 92.74911739948831 35.32807136493207 128.31281846296616 H 0.0 **** 0.06
335 H 91.14201186764649 35.429884353023425 127.55275959014608 H 0.0 **** 0.06
336 C 128.84067342773898 82.72619944277653 25.355200182949773 C 0.0 **** -0.24
337 H 129.35470827503255 83.6718595891951 25.179668755099556 H 0.0 **** 0.06
338 H 128.05648796797885 82.8717458720443 26.09919724625854 H 0.0 **** 0.06
339 H 129.55402718004024 81.98691305924001 25.718138504694224 H 0.0 **** 0.06
340 H 128.39743651958324 82.37648018224138 24.42340265315059 H 0.0 **** 0.06
341 C 134.6620187340088 42.783595985107354 144.66417634940746 C 0.0 **** -0.24
342 H 134.38011025983982 42.726431634340315 143.61240068012043 H 0.0 **** 0.06
343 H 134.18770096194376 41.96880581012016 145.21221452115697 H 0.0 **** 0.06
344 H 134.33493098385858 43.737802064561095 145.0761332908015 H 0.0 **** 0.06
345 H 135.74433800516005 42.70082617608705 144.7550955177187 H 0.0 **** 0.06
346 C 89.01041893730121 1.4242474617991476 156.65973368425335 C 0.0 **** -0.24
347 H 88.2022226562139 1.2434843735321053 157.36877717801713 H 0.0 **** 0.06
348 H 89.93628476290525 1.6090990881107459 157.20460664130076 H 0.0 **** 0.06
349 H 88.76820431735212 2.2929618839622634 156.0482514754976 H 0.0 **** 0.06
350 H 89.13234014142364 0.5500415404379382 156.01907351506415 H 0.0 **** 0.06
351 C 8.439083197529314 145.68643550051365 96.94128155745486 C 0.0 **** -0.24
352 H 9.488480034246166 145.75035928782088 96.65392427512955 H 0.0 **** 0.06
353 H 8.327418798477062 146.00202163694226 97.97949862981025 H 0.0 **** 0.06
354 H 8.095723414109706 144.65724276952386 96.83516099016342 H 0.0 **** 0.06
355 H 7.846761378168829 146.335662767194 96.29780198810244 H 0.0 **** 0.06
356 C 69.62038389380429 152.34725150012082 45.468370054787016 C 0.0 **** -0.24
357 H 69.56805645879868 152.65242148233415 44.42379345351412 H 0.0 **** 0.06
358 H 69.04019032548987 153.03983696522653 46.077719681821634 H 0.0 **** 0.06
359 H 70.65974902319587 152.3555942841935 45.79825752157001 H 0.0 **** 0.06
360 H 69.21404237708569 151.34153138996004 45.5744870171315 H 0.0 **** 0.06
361 C 35.62312829068327 12.756616304476012 98.3264992558303 C 0.0 **** -0.24
362 H 35.236749180191566 13.118591678194377 97.37423922348063 H 0.0 **** 0.06
363 H 34.80452596634774 12.348962311260124 98.91873367863846 H 0.0 **** 0.06
364 H 36.0876743908309 13.580772103284204 98.86731189317788 H 0.0 **** 0.06
365 H 36.3646014802099 11.977794264595389 98.14481557627062 H 0.0 **** 0.06
366 C 100.92929743240316 112.35255106375394 169.4983681241785 C 0.0 **** -0.24
367 H 100.3853551709708 113.29274582526861 169.5942421957882 H 0.0 **** 0.06
368 H 100.58957087582704 111.82630582951509 168.60697316538895 H 0.0 **** 0.06
369 H 100.74565119879381 111.73502843586365 170.37830907956192 H 0.0 **** 0.06
370 H 101.9965818225497 112.55768256958191 169.41583765928155 H 0.0 **** 0.06
371 C 168.14056003533503 27.743142459067798 75.61078641904663 C 0.0 **** -0.24
372 H 168.2427051338772 28.574009348360107 76.30883281754457 H 0.0 **** 0.06
373 H 169.02277575219165 27.10569240226465 75.6723010369245 H 0.0 **** 0.06
374 H 168.0406394468571 28.131335403979648 74.59671870734327 H 0.0 **** 0.06
375 H 167.25346435169277 27.162420633473943 75.86569350748633 H 0.0 **** 0.06
376 C 141.89848900904235 114.22095834099702 172.35985339093162 C 0.0 **** -0.24
377 H 141.39412575044048 114.51636730137557 171.44014451413466 H 0.0 **** 0.06
378 H 141.22428894315266 113.61472156081709 172.96521562507945 H 0.0 **** 0.06
379 H 142.18576460481574 115.11206525764365 172.91763504130228 H 0.0 **** 0.06
380 H 142.78868880541273 113.64151158053684 172.11606670834252 H 0.0 **** 0.06
381 C 34.53077675774297 98.60508064419469 86.44480709054383 C 0.0 **** -0.24
382 H 33.96983894571885 98.51233100476992 85.51552757152797 H 0.0 **** 0.06
383 H 33.9993066139193 98.08577316662553 87.24294081647653 H 0.0 **** 0.06
384 H 34.63417834551102 99.6595439015868 86.70312776203818 H 0.0 **** 0.06
385 H 35.51927121436573 98.1635261233177 86.3186385653091 H 0.0 **** 0.06
386 C 51.63873616328226 47.42760469015978 159.11699127361408 C 0.0 **** -0.24
387 H 52.38457693032285 48.11422343309388 158.71726459148363 H 0.0 **** 0.06
388 H 51.08300246522748 47.918909112478346 159.91427863999957 H 0.0 **** 0.06
389 H 52.13697860453897 46.54151386463498 159.51200613536818 H 0.0 **** 0.06
390 H 50.953048906805066 47.13402424073696 158.32179714168404 H 0.0 **** 0.06
391 C 162.60246433545305 27.205415098745412 124.42047810100101 C 0.0 **** -0.24
392 H 161.55169029749624 27.49770305470824 124.43747532743615 H 0.0 **** 0.06
393 H 163.102507010666 27.59922962501023 125.30595066262023 H 0.0 **** 0.06
394 H 163.07643207739278 27.60699278650624 123.52578034332194 H 0.0 **** 0.06
395 H 162.67593010741638 26.11768170551825 124.4153747525256 H 0.0 **** 0.06
396 C 76.44835430120781 80.76702768080617 135.20528225680914 C 0.0 **** -0.24
397 H 76.48455382143209 81.35211330420142 136.12457851530797 H 0.0 **** 0.06
398 H 77.44430894574293 80.38678881114555 134.97793244784566 H 0.0 **** 0.06
399 H 76.10454707328114 81.39810949271447 134.38628805838647 H 0.0 **** 0.06
400 H 75.76020053853699 79.93153427877905 135.33320940566364 H 0.0 **** 0.06
401 C 130.0433933501942 128.61362945768911 23.096970044252288 C 0.0 **** -0.24
402 H 129.65125501528905 129.5090549544278 22.61493696875317 H 0.0 **** 0.06
403 H 129.22092662797542 128.04564128724016 23.53165741657054 H 0.0 **** 0.06
404 H 130.74268650505377 128.9007192188432 23.881540440286727 H 0.0 **** 0.06
405 H 130.55908806923566 127.99957772528737 22.357373083182353 H 0.0 **** 0.06
406 C 134.76000311900765 116.41270079704688 57.057865311450996 C 0.0 **** -0.24
407 H 134.65695631450092 117.27319628031589 56.39726176418833 H 0.0 **** 0.06
408 H 134.27106751884236 116.62548547718905 58.00958370451144 H 0.0 **** 0.06
409 H 135.81696545377952 116.21227499910131 57.229770150173124 H 0.0 **** 0.06
410 H 134.29424724012466 115.54178388581414 56.59612794599178 H 0.0 **** 0.06
411 C 81.27002342858684 20.028001962051803 32.38418520614562 C 0.0 **** -0.24
412 H 81.8559182671468 20.59873477107533 33.104323019370895 H 0.0 **** 0.06
413 H 80.70150569490319 20.712658744609826 31.75500490278506 H 0.0 **** 0.06
414 H 80.58462423752914 19.36767194087963 32.91602203504755 H 0.0 **** 0.06
415 H 81.938912056862 19.43255771787176 31.76284042409941 H 0.0 **** 0.06
416 C 132.97662994935217 136.84868594804425 110.6440334091086 C 0.0 **** -0.24
417 H 132.4566287546197 137.73159376235247 111.01396677734985 H 0.0 **** 0.06
418 H 133.2600005960548 137.00387673518418 109.6036349060571 H 0.0 **** 0.06
419 H 132.31834418122108 135.98289456085718 110.71631278341937 H 0.0 **** 0.06
420 H 133.8708739660079 136.6758560084915 111.24274338290121 H 0.0 **** 0.06
421 C 48.617350653246916 90.32118632122538 126.6553985515242 C 0.0 **** -0.24
422 H 49.35188284020512 91.12393387662706 126.58939840700751 H 0.0 **** 0.06
423 H 47.634494252530985 90.70634968346621 126.38394936052603 H 0.0 **** 0.06
424 H 48.58889952225471 89.93867589470815 127.67526690974651 H 0.0 **** 0.06
425 H 48.894679133547086 89.51783887252779 125.97228728788102 H 0.0 **** 0.06
426 C 44.778223688625914 96.97003984736597 10.025181031734974 C 0.0 **** -0.24
427 H 44.79055500709103 96.50652033746752 11.011655455342833 H 0.0 **** 0.06
428 H 44.88487461308465 98.05026938213467 10.130295024756208 H 0.0 **** 0.06
429 H 43.83380249271835 96.74493698835715 9.530614082400206 H 0.0 **** 0.06
430 H 45.603093061523225 96.57936061340234 9.43077007097628 H 0.0 **** 0.06
431 C 88.70124439910586 91.93807672971985 138.4709977750498 C 0.0 **** -0.24
432 H 89.70132191400836 92.05695072419428 138.0552224797491 H 0.0 **** 0.06
433 H 88.05444704495164 91.46647268695472 137.73041285363416 H 0.0 **** 0.06
434 H 88.29857075227994 92.9163519283801 138.73462017655197 H 0.0 **** 0.06
435 H 88.75012269718587 91.31193888762738 139.3614153606547 H 0.0 **** 0.06
436 C 136.06670154095102 156.9926871589422 159.06135276426903 C 0.0 **** -0.24
437 H 136.73602556904956 156.16235933799223 159.28554069641478 H 0.0 **** 0.06
438 H 135.2269081324475 156.6327294582923 158.46598590022435 H 0.0 **** 0.06
439 H 136.6094318365805 157.75448160329864 158.50081261100954 H 0.0 **** 0.06
440 H 135.69622719104336 157.42173687110943 159.9923674183676 H 0.0 **** 0.06
441 C 73.70058068789291 156.45895306182396 59.80133762398026 C 0.0 **** -0.24
442 H 73.66465240635085 155.54982390294515 60.40066765441033 H 0.0 **** 0.06
443 H 74.45629616318834 156.35031110830602 59.022114108487045 H 0.0 **** 0.06
444 H 73.9552489351575 157.3050173137646 60.439606023210885 H 0.0 **** 0.06
445 H 72.72721822836388 156.63126111640585 59.3417610272907 H 0.0 **** 0.06
446 C 134.8757804526812 125.04811384885605 114.18785194297271 C 0.0 **** -0.24
447 H 135.21838963713736 124.81407128619031 113.1801564548557 H 0.0 **** 0.06
448 H 135.10112694177394 124.21296346259558 114.85164332496873 H 0.0 **** 0.06
449 H 133.79958134142237 125.22239091662257 114.17439163428793 H 0.0 **** 0.06
450 H 135.3846628336674 125.94378481520755 114.54536341482486 H 0.0 **** 0.06
451 C 108.39253515582462 86.13375014066666 103.96012448180855 C 0.0 **** -0.24
452 H 109.13472683217518 86.83275107361928 104.34674240593756 H 0.0 **** 0.06
453 H 107.59397846786291 86.68798026730924 103.4662070921135 H 0.0 **** 0.06
454 H 107.97789232974418 85.55220959526315 104.78266205924248 H 0.0 **** 0.06
455 H 108.86665473662751 85.46306288582592 103.24336620922648 H 0.0 **** 0.06
456 C 16.577993253670712 58.74410119665248 58.902113649390344 C 0.0 **** -0.24
457 H 17.543283776677356 59.101230722893774 58.54296618857205 H 0.0 **** 0.06
458 H 16.670874307241036 57.705411409517495 59.22074171914636 H 0.0 **** 0.06
459 H 15.84341857370103 58.81350784970212 58.100257102861974 H 0.0 **** 0.06
460 H 16.25575878062847 59.35598738063658 59.74475855235609 H 0.0 **** 0.06
461 C 113.95879266205375 66.98477154959588 15.710516299150356 C 0.0 **** -0.24
462 H 113.66006107385991 66.82293681299208 14.675566977718859 H 0.0 **** 0.06
463 H 115.00657603772706 67.28390554751397 15.743425912904911 H 0.0 **** 0.06
464 H 113.82669710727126 66.06167274100385 16.27526628825518 H 0.0 **** 0.06
465 H 113.34234444753648 67.76975948925048 16.14809452860169 H 0.0 **** 0.06
466 C 2.580955979642681 3.532033385726038 47.17321020422139 C 0.0 **** -0.24
467 H 1.5098142084916617 3.332235897695398 47.211765009137025 H 0.0 **** 0.06
468 H 3.1008977999237857 2.860361477212848 47.85634089244138 H 0.0 **** 0.06
469 H 2.7675500901740406 4.565144000282402 47.46696399579878 H 0.0 **** 0.06
470 H 2.9438678813587558 3.372148049199552 46.15798913898584 H 0.0 **** 0.06
471 C 111.15757360850546 54.44067129859542 113.74138528227087 C 0.0 **** -0.24
472 H 111.30047429751727 54.9484967148573 112.78744978643334 H 0.0 **** 0.06
473 H 110.25983497356503 53.82412998055497 113.69319462696313 H 0.0 **** 0.06
474 H 111.04926924567206 55.18012987654234 114.5338279089558 H 0.0 **** 0.06
475 H 112.02144206454517 53.80901698031772 113.94891432619355 H 0.0 **** 0.06
476 C 40.76921761107343 94.69939071043987 61.78203496137502 C 0.0 **** -0.24
477 H 40.08274327667891 94.11357077190169 62.39308255748398 H 0.0 **** 0.06
478 H 40.2176233320223 95.489843145034 61.271991908230916 H 0.0 **** 0.06
479 H 41.24163959423447 94.05105882202048 61.043221417584164 H 0.0 **** 0.06
480 H 41.5345081629153 95.14292952787648 62.41892339076588 H 0.0 **** 0.06
481 C 54.38114473998891 138.87766307530035 170.43310847392712 C 0.0 **** -0.24
482 H 53.75695325887345 138.06079873855242 170.7962625097378 H 0.0 **** 0.06
483 H 53.75502720192908 139.61693312483584 169.9326378625243 H 0.0 **** 0.06
484 H 55.11715112386901 138.487737199122 169.73030011641208 H 0.0 **** 0.06
485 H 54.89238030003105 139.34453036215166 171.27431373516424 H 0.0 **** 0.06
486 C 143.41787055670403 151.48419659276647 14.020519995779779 C 0.0 **** -0.24
487 H 143.44831200873617 151.80485821800968 15.06184013146975 H 0.0 **** 0.06
488 H 142.41744760347376 151.12605444389152 13.780223791064373 H 0.0 **** 0.06
489 H 144.13892165113583 150.68223701976453 13.866824492693297 H 0.0 **** 0.06
490 H 143.6687038524896 152.32591962284732 13.374663823136785 H 0.0 **** 0.06
491 C 95.2917399348081 102.71610735196174 16.00089981932225 C 0.0 **** -0.24
492 H 94.93905529275582 101.7163413699316 16.25328780621347 H 0.0 **** 0.06
493 H 94.8722881788974 103.01699501916553 15.039724973921736 H 0.0 **** 0.06
494 H 96.38040109075246 102.71230237715505 15.937239574421909 H 0.0 **** 0.06
495 H 94.97479009874326 103.41856532492878 16.770945109122373 H 0.0 **** 0.06
496 C 16.136607964599655 32.71013084572047 75.41633924965794 C 0.0 **** -0.24
497 H 16.533349938856603 31.70193685409106 75.29586155996955 H 0.0 **** 0.06
498 H 16.458666119678945 33.32909228070281 74.57915380967216 H 0.0 **** 0.06
499 H 16.506781635836305 33.13723246168229 76.34799896710727 H 0.0 **** 0.06
500 H 15.04721629980584 32.67135341123833 75.44232617007697 H 0.0 **** 0.06
501 C 53.6231447069334 18.334375841189967 133.417683778563 C 0.0 **** -0.24
502 H 53.518292500269254 17.334485167496723 132.9972865570381 H 0.0 **** 0.06
503 H 52.68196156610611 18.63546182899114 133.87736595089132 H 0.0 **** 0.06
504 H 53.88220482427981 19.036626959061437 132.62484241397647 H 0.0 **** 0.06
505 H 54.41109286587486 18.330772891403512 134.17107007572497 H 0.0 **** 0.06
506 C 153.9520722267099 77.93212605616736 17.40411488729027 C 0.0 **** -0.24
507 H 153.76218145105832 76.8885452070405 17.65517004249154 H 0.0 **** 0.06
508 H 153.00309009764186 78.45441505904314 17.28109329589858 H 0.0 **** 0.06
509 H 154.5188769275417 77.98467869471469 16.474832464048873 H 0.0 **** 0.06
510 H 154.52362424857984 78.40011444405788 18.205775879788646 H 0.0 **** 0.06
511 C 51.76200493944933 66.4596821542109 12.92371837567967 C 0.0 **** -0.24
512 H 52.27451501344042 65.59088436909309 13.337643534879156 H 0.0 **** 0.06
513 H 51.02060493696399 66.13179554590073 12.194436112420583 H 0.0 **** 0.06
514 H 52.48756739193787 67.11064394283574 12.437087065985743 H 0.0 **** 0.06
515 H 51.265811475664705 67.00443532406743 13.726618245995112 H 0.0 **** 0.06
516 C 53.3522770930046 60.01039065248949 99.66199753644071 C 0.0 **** -0.24
517 H 53.61264839601142 58.96896467510359 99.85050721120635 H 0.0 **** 0.06
518 H 53.72751325328932 60.30568722386363 98.68125088555112 H 0.0 **** 0.06
519 H 53.801684465161316 60.6418411412012 100.42848920767509 H 0.0 **** 0.06
520 H 52.26859651916766 60.124385462279434 99.68514438135273 H 0.0 **** 0.06
521 C 145.29285382060047 7.243828213103583 164.52960533779043 C 0.0 **** -0.24
522 H 146.18752831946998 6.997518593307909 165.10167727816201 H 0.0 **** 0.06
523 H 144.63909392752953 6.37318910281158 164.4854159010157 H 0.0 **** 0.06
524 H 145.57803745144793 7.536038339521831 163.51813918877917 H 0.0 **** 0.06
525 H 144.76951034910587 8.068691218068757 165.01200743986448 H 0.0 **** 0.06
526 C 155.0835210541199 48.773017919716665 144.46011539150885 C 0.0 **** -0.24
527 H 154.24895874103896 49.462395301843245 144.33385081308683 H 0.0 **** 0.06
528 H 155.93348920100192 49.12110400988544 143.87305712167762 H 0.0 **** 0.06
529 H 154.78932168830084 47.78021584127214 144.1197068857707 H 0.0 **** 0.06
530 H 155.36274349820457 48.72786141468498 145.51259336797438 H 0.0 **** 0.06
531 C 81.29892047511035 41.69987269114132 130.6823846372751 C 0.0 **** -0.24
532 H 80.91217217908888 42.18727054785586 131.57699251322146 H 0.0 **** 0.06
533 H 80.76357505674605 42.0698349141377 129.8075546875525 H 0.0 **** 0.06
534 H 81.15953934643491 40.622292054176484 130.7661643694459 H 0.0 **** 0.06
535 H 82.36138684665862 41.922088352039864 130.57901821790858 H 0.0 **** 0.06
536 C 172.29888393589454 49.18429009394691 70.24881596903427 C 0.0 **** -0.24
537 H 172.49173223445047 48.283301062105096 69.66630460559645 H 0.0 **** 0.06
538 H 172.93081978587867 49.99478609039937 69.88353176420449 H 0.0 **** 0.06
539 H 172.52450473300559 48.99311900991668 71.29831255296102 H 0.0 **** 0.06
540 H 171.2512704026015 49.46485796423735 70.14719561489856 H 0.0 **** 0.06
541 C 78.11739795632917 87.21988273448376 135.3037605145228 C 0.0 **** -0.24
542 H 77.90119248483313 86.40117632288899 134.617867539505 H 0.0 **** 0.06
543 H 78.78154637064983 87.93553375332326 134.81839394342953 H 0.0 **** 0.06
544 H 78.59963083110867 86.82490295615507 136.19822383335102 H 0.0 **** 0.06
545 H 77.18749595994646 87.71568629528545 135.58152890695573 H 0.0 **** 0.06
546 C 161.88011929388574 139.90887730490618 0.4220439445117279 C 0.0 **** -0.24
547 H 161.203158795901 140.6633262328532 0.8216956163762461 H 0.0 **** 0.06
548 H 162.50621467347474 140.35597511493938 -0.35051047203631924 H 0.0 **** 0.06
549 H 161.29997160112623 139.09168917388962 -0.006985666814671276 H 0.0 **** 0.06
550 H 162.51052079602738 139.52519201135107 1.2243922070923645 H 0.0 **** 0.06
551 C 145.9034081503521 94.3397362218439 3.87999406575085 C 0.0 **** -0.24
552 H 145.90300665290226 94.36720702284993 4.96932475896682 H 0.0 **** 0.06
553 H 146.91933426306625 94.17278317626841 3.5215209012001196 H 0.0 **** 0.06
554 H 145.53292311845965 95.28898654906101 3.4926300891538062 H 0.0 **** 0.06
555 H 145.2593175300703 93.53027598002888 3.5365692960008346 H 0.0 **** 0.06
556 C 118.76088980897686 42.331031452432555 102.69779643505149 C 0.0 **** -0.24
557 H 117.9254760156312 42.67577923725129 103.30641776083883 H 0.0 **** 0.06
558 H 119.62741667412206 42.15682877920369 103.33457564840216 H 0.0 **** 0.06
559 H 119.00291643842806 43.0890010931942 101.9519188603999 H 0.0 **** 0.06
560 H 118.48547406791718 41.40240393739795 102.19632227125408 H 0.0 **** 0.06
561 C 107.19354504500578 144.69763274001917 73.55536689525749 C 0.0 **** -0.24
562 H 106.30311427706252 145.28742264238937 73.33737582342394 H 0.0 **** 0.06
563 H 108.06140834866451 145.35526643002555 73.6084084973787 H 0.0 **** 0.06
564 H 107.3434728056788 143.96131503426443 72.7665043879136 H 0.0 **** 0.06
565 H 107.06569854203116 144.18648678163018 74.510051812942 H 0.0 **** 0.06
566 C 4.687214567791955 103.86776525788306 132.8623882096241 C 0.0 **** -0.24
567 H 4.816195546706183 102.8040441329725 133.05835610733675 H 0.0 **** 0.06
568 H 5.635613598489613 104.29435085377614 132.53298534935533 H 0.0 **** 0.06
569 H 4.361334702850598 104.36764003894015 133.7741632270811 H 0.0 **** 0.06
570 H 3.936493959539547 104.00597962147148 132.08335317553602 H 0.0 **** 0.06
571 C 136.71058701640476 151.93363873623417 131.49949684915836 C 0.0 **** -0.24
572 H 137.15211069326978 151.1849886123332 130.84222445440355 H 0.0 **** 0.06
573 H 135.6824921007495 151.65343133351763 131.72935299377352 H 0.0 **** 0.06
574 H 136.72194645487886 152.90476831474768 131.00486215178785 H 0.0 **** 0.06
575 H 137.28654199041617 151.99070326586696 132.42354972285355 H 0.0 **** 0.06
576 C 119.77765164478052 54.947567900497475 140.15813670610223 C 0.0 **** -0.24
577 H 119.21988011600203 54.93439595846927 141.0937672780235 H 0.0 **** 0.06
578 H 120.75312073077913 54.48364728336357 140.3089708788923 H 0.0 **** 0.06
579 H 119.91250096380773 55.978831612195165 139.82998881486873 H 0.0 **** 0.06
580 H 119.22542012879546 54.39435368559637 139.3988274443758 H 0.0 **** 0.06
581 C 160.35100426311314 8.844499160782703 157.644733450766 C 0.0 **** -0.24
582 H 160.95680145927122 9.457131811196732 158.31306660290812 H 0.0 **** 0.06
583 H 160.8118225960099 8.820738244582799 156.6574133115813 H 0.0 **** 0.06
584 H 159.35049640427857 9.26990449774204 157.5698435681546 H 0.0 **** 0.06
585 H 160.28584950477548 7.831583510087327 158.04040994838635 H 0.0 **** 0.06
586 C 131.3950884151943 139.54907094554505 156.39598192543463 C 0.0 **** -0.24
587 H 130.5863114197349 139.33780885915985 155.69585171560118 H 0.0 **** 0.06
588 H 130.9902064779714 139.64007649810037 157.40282785764848 H 0.0 **** 0.06
589 H 131.88450427498077 140.48167899241025 156.1138444517655 H 0.0 **** 0.06
590 H 132.12026990357327 138.73588348267845 156.36699673324398 H 0.0 **** 0.06
591 C 29.69157727567341 153.28097997947228 39.5184186035268 C 0.0 **** -0.24
592 H 30.63162961286855 153.39064279118068 40.060221047972874 H 0.0 **** 0.06
593 H 29.0666580705676 154.1558263880033 39.69467949353471 H 0.0 **** 0.06
594 H 29.1740816498978 152.3871863090123 39.8660007084178 H 0.0 **** 0.06
595 H 29.8963977415238 153.190039890979 38.45106781770859 H 0.0 **** 0.06
596 C 168.29385128736212 50.94225007471485 148.64973074963825 C 0.0 **** -0.24
597 H 167.5012304199086 50.86838822191356 147.90493629401539 H 0.0 **** 0.06
598 H 168.81039666343858 51.895822099708795 148.53622534116846 H 0.0 **** 0.06
599 H 169.00226149303074 50.12575637326728 148.50785680594535 H 0.0 **** 0.06
600 H 167.86137736761373 50.87863166809808 149.64770928772387 H 0.0 **** 0.06
601 C 153.02252298430125 145.2355091006355 122.90232405621529 C 0.0 **** -0.24
602 H 153.53792493393684 145.76667714831183 123.70308965590343 H 0.0 **** 0.06
603 H 153.74715901069936 144.9161877612735 122.1534050405383 H 0.0 **** 0.06
604 H 152.29056378227915 145.89798687179862 122.44043000874603 H 0.0 **** 0.06
605 H 152.51521786982443 144.3630474464869 123.31333664784003 H 0.0 **** 0.06
606 C 82.26982348004115 53.548644257195406 155.62486885349284 C 0.0 **** -0.24
607 H 82.60623035465665 53.234179233253755 156.61322980534584 H 0.0 **** 0.06
608 H 82.38573658110415 54.627472466951545 155.52805980395812 H 0.0 **** 0.06
609 H 81.22059650539819 53.28238420630774 155.49803226884208 H 0.0 **** 0.06
610 H 82.86661122728643 53.047914629073574 154.8621753221081 H 0.0 **** 0.06
611 C 155.41492134763854 126.2979804903049 1.3228720505861062 C 0.0 **** -0.24
612 H 156.2864473408598 126.81651251714513 0.924874399963457 H 0.0 **** 0.06
613 H 154.619558156942 127.01777980470811 1.5151128236109699 H 0.0 **** 0.06
614 H 155.684213027361 125.79734801745946 2.254181005762945 H 0.0 **** 0.06
615 H 155.07103774740602 125.55853887684165 0.6007104957066645 H 0.0 **** 0.06
616 C 158.1887176099062 103.5544460414389 67.46130641947241 C 0.0 **** -0.24
617 H 158.20984229722782 103.9016391585715 68.49371323711983 H 0.0 **** 0.06
618 H 158.74771510194103 102.62175767237414 67.38054493339507 H 0.0 **** 0.06
619 H 158.64287812049713 104.30720766683604 66.81577145252191 H 0.0 **** 0.06
620 H 157.15592726485906 103.38877487232591 67.1547181747066 H 0.0 **** 0.06
621 C 157.93138778717577 36.44201546092512 69.68046468378293 C 0.0 **** -0.24
622 H 158.512232246549 36.12531399564051 70.54570802025262 H 0.0 **** 0.06
623 H 157.94834691326727 35.65627866273098 68.92438182367806 H 0.0 **** 0.06
624 H 158.36392221145633 37.35331020055986 69.26725159158974 H 0.0 **** 0.06
625 H 156.90165864932152 36.633542690983006 69.98294182242711 H 0.0 **** 0.06
626 C 74.91454614947648 46.947986393888414 89.38019478282962 C 0.0 **** -0.24
627 H 74.04710215177263 47.25846049908799 88.79829280825811 H 0.0 **** 0.06
628 H 74.92067621551288 45.86126557898581 89.47066858018894 H 0.0 **** 0.06
629 H 74.86422003517946 47.394619193126815 90.37374882741432 H 0.0 **** 0.06
630 H 75.82441847979061 47.276798166812455 88.879562878086 H 0.0 **** 0.06
631 C 73.84626446061887 96.1360741044665 40.92473456861997 C 0.0 **** -0.24
632 H 73.40756755953507 96.44977581353729 41.87217135428557 H 0.0 **** 0.06
633 H 74.84372013792836 96.56763095153451 40.82738409177884 H 0.0 **** 0.06
634 H 73.21978913547926 96.48120321949114 40.10237106055338 H 0.0 **** 0.06
635 H 73.91532792826567 95.04923339936391 40.898625867156255 H 0.0 **** 0.06
636 C 23.09833652819131 154.99849695055602 43.49671818653982 C 0.0 **** -0.24
637 H 24.00192380197859 154.53006295375835 43.10780073011966 H 0.0 **** 0.06
638 H 22.36950985279441 155.1040252319159 42.69298337331162 H 0.0 **** 0.06
639 H 23.34271935255981 155.98163590658208 43.898311261958895 H 0.0 **** 0.06
640 H 22.679233144879333 154.37617129546862 44.28856499619948 H 0.0 **** 0.06
641 C 121.26845884642933 63.30575521931617 136.31222145955778 C 0.0 **** -0.24
642 H 120.53602621635781 64.0657990712467 136.5857959370234 H 0.0 **** 0.06
643 H 121.03325191574402 62.37360731444757 136.82542722165635 H 0.0 **** 0.06
644 H 122.26426540240425 63.640552905680664 136.60205932249215 H 0.0 **** 0.06
645 H 121.23953011396458 63.14546778283709 135.23398156052357 H 0.0 **** 0.06
646 C 42.54782940071874 168.47956580028287 172.6897026843518 C 0.0 **** -0.24
647 H 42.159545763785644 169.17587161896645 173.43317912409833 H 0.0 **** 0.06
648 H 41.856017587363255 167.6449646343527 172.5764971620622 H 0.0 **** 0.06
649 H 43.51904292393846 168.10583553102728 173.0140314737657 H 0.0 **** 0.06
650 H 42.65786582121976 168.99265283925698 171.7338617526913 H 0.0 **** 0.06
651 C 134.52097691656078 98.52393929316682 169.95519450355366 C 0.0 **** -0.24
652 H 134.0492177916464 97.59610876514611 170.27884250116006 H 0.0 **** 0.06
653 H 134.62093247863297 98.51986639986822 168.8696662957679 H 0.0 **** 0.06
654 H 135.50641671354603 98.60959009485114 170.41124108486616 H 0.0 **** 0.06
655 H 133.90374558635904 99.36941610483268 170.2603398030156 H 0.0 **** 0.06
656 C 166.50850667699086 67.40900312295392 111.7538993218036 C 0.0 **** -0.24
657 H 165.82298597340852 67.38402677983909 110.9065170310424 H 0.0 **** 0.06
658 H 167.49698864074162 67.71945773094804 111.41304514148194 H 0.0 **** 0.06
659 H 166.57266362570692 66.41589334158063 112.19844294203577 H 0.0 **** 0.06
660 H 166.14138846810624 68.11663463944795 112.49759217265418 H 0.0 **** 0.06
661 C 112.02715831650718 146.45179277318186 164.36743481731241 C 0.0 **** -0.24
662 H 112.06503808162086 147.16999282468106 163.5479862147096 H 0.0 **** 0.06
663 H 112.57429517042658 146.84889454738544 165.22394733941766 H 0.0 **** 0.06
664 H 112.48140779952323 145.5135120277504 164.04918989292648 H 0.0 **** 0.06
665 H 110.98921313370019 146.27681729071094 164.64888203561816 H 0.0 **** 0.06
666 C 96.62965244733013 68.26166138367057 69.9683888175274 C 0.0 **** -0.24
667 H 95.90258707220579 67.99572250496662 69.20054465281498 H 0.0 **** 0.06
668 H 97.37782847418868 68.93149069112368 69.54361059502435 H 0.0 **** 0.06
669 H 97.11673843603722 67.35812650094567 70.33503188510414 H 0.0 **** 0.06
670 H 96.12105037827283 68.7611361619182 70.7930239297234 H 0.0 **** 0.06
671 C 138.51443898555624 47.302497722265684 79.79163802242459 C 0.0 **** -0.24
672 H 138.5725637837458 46.220344602826 79.67523649490562 H 0.0 **** 0.06
673 H 137.52677289512815 47.648269770805996 79.48778353614756 H 0.0 **** 0.06
674 H 139.27300968469268 47.77648503271385 79.16817533033749 H 0.0 **** 0.06
675 H 138.68629141225068 47.56536008915384 80.8354096948513 H 0.0 **** 0.06
676 C 117.12045398403023 144.57513855107572 32.40106028189719 C 0.0 **** -0.24
677 H 117.7043895012807 144.61987025832065 31.48160904414044 H 0.0 **** 0.06
678 H 117.28830792263517 145.48092039109684 32.983101069662055 H 0.0 **** 0.06
679 H 117.42626287269798 143.70590464045222 32.984125924668035 H 0.0 **** 0.06
680 H 116.06182203580192 144.4921132189047 32.15446469018069 H 0.0 **** 0.06
681 C 140.03087028337336 6.6321163303927335 95.08238639299003 C 0.0 **** -0.24
682 H 139.88388977216763 7.705341072983629 94.95979530134434 H 0.0 **** 0.06
683 H 139.408032341735 6.271973271960292 95.90194547846613 H 0.0 **** 0.06
684 H 141.0786477809838 6.432429509004095 95.30747899973667 H 0.0 **** 0.06
685 H 139.7524624786278 6.119249047083599 94.1615588091434 H 0.0 **** 0.06
686 C 45.594748236231794 68.14622021614976 43.27730861569697 C 0.0 **** -0.24
687 H 45.958581452283795 67.12155915785051 43.356512812606866 H 0.0 **** 0.06
688 H 45.81723882203073 68.68284965770327 44.200274487899605 H 0.0 **** 0.06
689 H 44.51746216043614 68.1385008383111 43.11281759824419 H 0.0 **** 0.06
690 H 46.08727237071844 68.64262219614868 42.44109139484044 H 0.0 **** 0.06
691 C 47.403360712674626 102.22332674451877 20.8437750378813 C 0.0 **** -0.24
692 H 47.496692078331066 103.19081305473446 20.350100356942505 H 0.0 **** 0.06
693 H 47.95386323664732 101.47214209688968 20.278036793269536 H 0.0 **** 0.06
694 H 46.35109400495345 101.94167334337135 20.89577845950194 H 0.0 **** 0.06
695 H 47.8111868111385 102.28985426803024 21.85298719560558 H 0.0 **** 0.06
696 C 63.0036248136999 30.338044591480184 26.359103043990217 C 0.0 **** -0.24
697 H 63.59866678366126 29.42512301553586 26.345159450410854 H 0.0 **** 0.06
698 H 62.27706342422914 30.284258734995092 27.170355061962105 H 0.0 **** 0.06
699 H 62.48166062059522 30.445411234866228 25.408854161984195 H 0.0 **** 0.06
700 H 63.658405980720715 31.195386352996252 26.51412208785986 H 0.0 **** 0.06
701 C 5.96540277876602 6.921048774409769 36.78916216438495 C 0.0 **** -0.24
702 H 5.080526485690996 6.743192210201187 37.399058985119154 H 0.0 **** 0.06
703 H 5.807157354664213 6.513393410054277 35.790365541092456 H 0.0 **** 0.06
704 H 6.8262019045852185 6.434086124673627 37.24735800279524 H 0.0 **** 0.06
705 H 6.149047188605948 7.9933483720909635 36.719394712001645 H 0.0 **** 0.06
706 C 125.46644802559325 23.189783381413832 79.73540472005749 C 0.0 **** -0.24
707 H 126.18480249845794 22.64517703145573 79.12164092644394 H 0.0 **** 0.06
708 H 125.11332931801456 22.54390359006917 80.53922351495913 H 0.0 **** 0.06
709 H 124.62197197303172 23.49687499468633 79.11742077402886 H 0.0 **** 0.06
710 H 125.94608148456354 24.070979297094112 80.16050313783853 H 0.0 **** 0.06
711 C 49.834173145069485 28.54237691255375 167.15813664109714 C 0.0 **** -0.24
712 H 50.15723591170132 27.827268961395248 166.401329358296 H 0.0 **** 0.06
713 H 49.8905878553403 29.55216672491025 166.7504711816975 H 0.0 **** 0.06
714 H 50.48425812708763 28.465785861847962 168.0302109136909 H 0.0 **** 0.06
715 H 48.807583721572314 28.324988275928717 167.44971761969532 H 0.0 **** 0.06
716 C 152.63725653300162 3.6916846198186306 23.24253653538699 C 0.0 **** -0.24
717 H 152.87634153617054 2.6811848874839654 23.573345885557103 H 0.0 **** 0.06
718 H 151.7860844250965 4.068475122192297 23.811332806385508 H 0.0 **** 0.06
719 H 152.3870633103228 3.6773328707775335 22.18215521777182 H 0.0 **** 0.06
720 H 153.4981734492369 4.3404302685310014 23.404605463857877 H 0.0 **** 0.06
721 C 30.001909379770666 80.99813404908616 2.1224493222767506 C 0.0 **** -0.24
722 H 29.972187153434618 81.6596185445747 2.9886312048221484 H 0.0 **** 0.06
723 H 30.241491905328246 81.57805383779623 1.2305118415995224 H 0.0 **** 0.06
724 H 29.028906402601052 80.52115844982282 1.996414701467458 H 0.0 **** 0.06
725 H 30.763384221446813 80.23336570114293 2.2756897449522597 H 0.0 **** 0.06
726 C 41.158914435837346 26.971859074371764 166.3851821101707 C 0.0 **** -0.24
727 H 41.27013849996129 26.633961773497475 167.41577554234522 H 0.0 **** 0.06
728 H 42.14113002367827 27.0304871906026 165.91476792424277 H 0.0 **** 0.06
729 H 40.691104719447594 27.95648447921505 166.37417864569005 H 0.0 **** 0.06
730 H 40.53485254998958 26.26648317192783 165.83674179863385 H 0.0 **** 0.06
731 C 45.26608582398647 147.534359387772 88.51805726011916 C 0.0 **** -0.24
732 H 44.73979069158389 147.02219868757277 89.32391087731952 H 0.0 **** 0.06
733 H 44.91868300006519 147.15275849156177 87.5578910128239 H 0.0 **** 0.06
734 H 46.33742406320674 147.35667062550485 88.61413160114216 H 0.0 **** 0.06
735 H 45.068046238228305 148.60432528084556 88.57791945151467 H 0.0 **** 0.06
736 C 93.65844883950513 34.79210937743942 98.52922337976722 C 0.0 **** -0.24
737 H 94.30951043623782 34.159283009758425 99.13251665548918 H 0.0 **** 0.06
738 H 93.77424223137638 35.83163702005379 98.83982991975967 H 0.0 **** 0.06
739 H 92.62229406245945 34.48397810227529 98.66770648394296 H 0.0 **** 0.06
740 H 93.92996951782175 34.69478917767151 97.47842346319544 H 0.0 **** 0.06
741 C 79.27351631326474 59.71337369189769 77.88289142405704 C 0.0 **** -0.24
742 H 78.98159978989648 60.758633679050234 77.98844004135219 H 0.0 **** 0.06
743 H 78.5615719601559 59.20144864048933 77.23537372710044 H 0.0 **** 0.06
744 H 79.28115764724998 59.23764701173798 78.86422722636813 H 0.0 **** 0.06
745 H 80.26997254812176 59.65727915643194 77.445153433364 H 0.0 **** 0.06
746 C 81.32114609587059 113.596467446339 49.562605686092766 C 0.0 **** -0.24
747 H 80.95226545331013 113.85034154642261 50.55696288072318 H 0.0 **** 0.06
748 H 80.87365851285746 112.65662571269738 49.238739088368234 H 0.0 **** 0.06
749 H 82.40544543927815 113.49259878719695 49.592811664030876 H 0.0 **** 0.06
750 H 81.05069958517834 114.38715220148814 48.862885396912375 H 0.0 **** 0.06
751 C 32.6822324786649 38.28590486870888 131.05421798826083 C 0.0 **** -0.24
752 H 33.15031365023674 39.270548824401516 131.0415886030827 H 0.0 **** 0.06
753 H 31.607178389004773 38.396228723727205 131.20032263790134 H 0.0 **** 0.06
754 H 33.101494368829734 37.694428848495306 131.86838122785352 H 0.0 **** 0.06
755 H 32.87062892274783 37.78220716933308 130.1050021795371 H 0.0 **** 0.06
756 C 57.2969869848626 132.9495329071805 10.917414602745296 C 0.0 **** -0.24
757 H 57.63531522227254 133.9836949501996 10.97306555320202 H 0.0 **** 0.06
758 H 56.285076157712865 132.92026938712505 10.511908324734513 H 0.0 **** 0.06
759 H 57.30115897080452 132.51199115202078 11.915789780288861 H 0.0 **** 0.06
760 H 57.96523288689451 132.38380200273048 10.26890699520834 H 0.0 **** 0.06
761 C 128.93334958794765 19.696406129291233 138.34157867166437 C 0.0 **** -0.24
762 H 129.27972353291713 20.724863051596856 138.2359441351382 H 0.0 **** 0.06
763 H 129.69304157997553 19.10990239931158 138.85844291069435 H 0.0 **** 0.06
764 H 128.7539881489855 19.270888474409958 137.35470767806032 H 0.0 **** 0.06
765 H 128.00831470429907 19.682804647837997 138.91764519410037 H 0.0 **** 0.06
766 C 161.5170983292318 103.98570737289734 21.48853017891338 C 0.0 **** -0.24
767 H 160.92917394517087 104.73931374760645 22.011981724928916 H 0.0 **** 0.06
768 H 160.85897686388 103.19006673657577 21.13668312166223 H 0.0 **** 0.06
769 H 162.26075686552264 103.568522817115 22.166749305376158 H 0.0 **** 0.06
770 H 162.0197015388487 104.44467610302794 20.636495006605088 H 0.0 **** 0.06
771 C 146.00020119520613 61.1648799750683 77.65415585716015 C 0.0 **** -0.24
772 H 145.09413730713274 60.63865448788913 77.35134041309782 H 0.0 **** 0.06
773 H 145.72913725504213 62.08658769423438 78.16959588515337 H 0.0 **** 0.06
774 H 146.5938097155567 61.40201209385498 76.7718093034238 H 0.0 **** 0.06
775 H 146.582156023481 60.53078797984888 78.3232702826508 H 0.0 **** 0.06
776 C 3.863677785730488 110.70256431287424 21.902287340412272 C 0.0 **** -0.24
777 H 4.698043772484652 110.9456749433387 22.558960593605434 H 0.0 **** 0.06
778 H 3.158248923516851 110.06295470286716 22.43220793505168 H 0.0 **** 0.06
779 H 4.236712750615027 110.18044615964112 21.020609529402464 H 0.0 **** 0.06
780 H 3.362853485142182 111.62063667940771 21.595277030895318 H 0.0 **** 0.06
781 C 58.92953037288426 35.70992055210925 38.71056236586247 C 0.0 **** -0.24
782 H 59.024306956717126 35.24940606463841 37.72744132728192 H 0.0 **** 0.06
783 H 59.883748343088925 35.6495289030737 39.23432577656219 H 0.0 **** 0.06
784 H 58.16582216394866 35.18511230232181 39.284886550710056 H 0.0 **** 0.06
785 H 58.64330100045436 36.75546391115398 38.59531036700922 H 0.0 **** 0.06
786 C 71.3413953973307 82.6815258767634 148.69954409472572 C 0.0 **** -0.24
787 H 71.42825103333072 83.47330690080709 149.4433882209088 H 0.0 **** 0.06
788 H 71.5490371276066 81.71888102211709 149.1680374391323 H 0.0 **** 0.06
789 H 72.05643682901504 82.85746097413126 147.8967354379284 H 0.0 **** 0.06
790 H 70.3300649611229 82.67659322432424 148.29134605443713 H 0.0 **** 0.06
791 C 5.227518117273291 52.119449765534384 141.39207724301252 C 0.0 **** -0.24
792 H 5.604852106092181 53.14109108508093 141.42871387148904 H 0.0 **** 0.06
793 H 5.323913200752884 51.732425783960394 140.37807793953627 H 0.0 **** 0.06
794 H 4.178306261085822 52.10825738814468 141.68759611232664 H 0.0 **** 0.06
795 H 5.8035822213048505 51.49563410498094 142.07604462117973 H 0.0 **** 0.06
796 C 30.626743860497754 145.13374147217655 88.75507926348799 C 0.0 **** -0.24
797 H 31.57626875301534 144.60572683809397 88.8475034652595 H 0.0 **** 0.06
798 H 30.811675083877333 146.207799197989 88.72161806099253 H 0.0 **** 0.06
799 H 29.99734508203852 144.89985612393156 89.61378177874965 H 0.0 **** 0.06
800 H 30.123830848127227 144.82177541651578 87.83993672993206 H 0.0 **** 0.06
801 C 22.972584936126275 121.09104818833634 152.4835887884835 C 0.0 **** -0.24
802 H 23.04111238449356 120.04283777979015 152.77524804948965 H 0.0 **** 0.06
803 H 23.11842464453005 121.72286389962767 153.35945570616585 H 0.0 **** 0.06
804 H 21.989377620489556 121.28498882368382 152.05415007701578 H 0.0 **** 0.06
805 H 23.741197241859588 121.31285413044009 151.74315011066778 H 0.0 **** 0.06
806 C 3.5981970956071336 167.98280005946853 131.45182950684563 C 0.0 **** -0.24
807 H 4.539811953992569 167.93898799287058 131.99871261443477 H 0.0 **** 0.06
808 H 3.149255328480109 168.96786486975878 131.5797232073339 H 0.0 **** 0.06
809 H 2.9189136051323885 167.2218117233696 131.83637584392827 H 0.0 **** 0.06
810 H 3.7843582608683164 167.8022689362528 130.3933590512904 H 0.0 **** 0.06
811 C 5.392941788637472 50.1040522418632 21.354688142400178 C 0.0 **** -0.24
812 H 4.804905717847163 49.241520289720086 21.667851658933124 H 0.0 **** 0.06
813 H 5.059681815675788 50.4328008318754 20.370340470423173 H 0.0 **** 0.06
814 H 6.446821345338265 49.828603491802994 21.307772593274493 H 0.0 **** 0.06
815 H 5.2608999136450905 50.91405371640229 22.073126576705548 H 0.0 **** 0.06
816 C 74.35836098690262 163.11084421746773 3.625818296919647 C 0.0 **** -0.24
817 H 75.2265692720056 162.4848519981736 3.8291954580820686 H 0.0 **** 0.06
818 H 73.44785038294779 162.55548537633382 3.8551678929377715 H 0.0 **** 0.06
819 H 74.35498834604462 163.39615817328774 2.573637339082353 H 0.0 **** 0.06
820 H 74.40265865821797 164.0066059831495 4.245107206871353 H 0.0 **** 0.06
821 C 92.41203185634743 86.2042986504025 166.12341284998578 C 0.0 **** -0.24
822 H 92.4397911407979 87.29397458110117 166.12585725017533 H 0.0 **** 0.06
823 H 93.36363686892935 85.81789257299079 165.75992090060805 H 0.0 **** 0.06
824 H 91.6078636584848 85.86346923228979 165.47118972380298 H 0.0 **** 0.06
825 H 92.23589900247524 85.84288209758137 167.13641110762882 H 0.0 **** 0.06
826 C 138.11466483714207 117.70782085117798 24.035817382763184 C 0.0 **** -0.24
827 H 137.0330171799348 117.83499838104575 24.08478082426427 H 0.0 **** 0.06
828 H 138.5523841686956 118.54018186675245 23.48478280088159 H 0.0 **** 0.06
829 H 138.34731168525065 116.77228473454448 23.52690795052058 H 0.0 **** 0.06
830 H 138.52298950707274 117.68483938501419 25.04569558010627 H 0.0 **** 0.06
831 C 96.09128277570932 108.51865167012227 12.349769934079973 C 0.0 **** -0.24
832 H 97.15152906506597 108.34336550713635 12.163956082307664 H 0.0 **** 0.06
833 H 95.93944010495579 109.55911723997826 12.635487211726968 H 0.0 **** 0.06
834 H 95.7521502415168 107.86706677245755 13.155677780662927 H 0.0 **** 0.06
835 H 95.52427478070521 108.30321626927818 11.444658515678839 H 0.0 **** 0.06
836 C 14.329902371276575 38.79581201645823 168.594379771212 C 0.0 **** -0.24
837 H 14.055782603255153 39.73752710804297 169.07051970879348 H 0.0 **** 0.06
838 H 13.42596604949722 38.24411032745866 168.33528988038864 H 0.0 **** 0.06
839 H 14.932181161118677 38.2033949886212 169.28273105749557 H 0.0 **** 0.06
840 H 14.903217205533053 38.99869004506999 167.69090495924155 H 0.0 **** 0.06
841 C 71.5830391621929 14.898102215060419 40.83482836700301 C 0.0 **** -0.24
842 H 72.04939340013215 15.756282952876631 40.35229163814621 H 0.0 **** 0.06
843 H 71.4024507879808 15.12598037040874 41.88618159984097 H 0.0 **** 0.06
844 H 72.24337116132244 14.034122541264196 40.75833675877392 H 0.0 **** 0.06
845 H 70.63581150729806 14.674895399867921 40.34370854773586 H 0.0 **** 0.06
846 C 63.79428919620938 71.85081174571198 120.31506764313332 C 0.0 **** -0.24
847 H 63.50773476446817 71.06709335186386 121.01678499327136 H 0.0 **** 0.06
848 H 63.91567178804267 71.42084564420752 119.3203784311896 H 0.0 **** 0.06
849 H 64.73449749991482 72.29861175411769 120.63529046242107 H 0.0 **** 0.06
850 H 63.0175570642385 72.61520607830671 120.28876764150905 H 0.0 **** 0.06
851 C 143.1183302711158 95.39642616334064 27.476543467181834 C 0.0 **** -0.24
852 H 143.83833857119538 94.66524281838946 27.109645475354334 H 0.0 **** 0.06
853 H 142.7442978777175 95.98839456138762 26.6420068697634 H 0.0 **** 0.06
854 H 143.6039924383575 96.05206867237115 28.199940571694114 H 0.0 **** 0.06
855 H 142.2882965445427 94.87904566898811 27.956706560818333 H 0.0 **** 0.06
856 C 103.75010852196311 88.26193404437919 110.6628133008056 C 0.0 **** -0.24
857 H 102.72929078032007 88.27583128769373 111.04250942050021 H 0.0 **** 0.06
858 H 103.758599358901 88.61642055590102 109.63153378657498 H 0.0 **** 0.06
859 H 104.13757807959783 87.2432018988568 110.699885887346 H 0.0 **** 0.06
860 H 104.37479869740537 88.91109646517845 111.27572234702063 H 0.0 **** 0.06
861 C 22.100618516353244 137.6671945503709 157.31180466192245 C 0.0 **** -0.24
862 H 22.3976844080344 136.79766424593487 157.89826531302037 H 0.0 **** 0.06
863 H 21.014329445707553 137.75352579822697 157.31428223331923 H 0.0 **** 0.06
864 H 22.45418848070573 137.5509220850273 156.28703337257969 H 0.0 **** 0.06
865 H 22.53922542164331 138.56553807226612 157.74757767351684 H 0.0 **** 0.06
866 C 145.19609763484027 141.1611283571387 167.50649865152582 C 0.0 **** -0.24
867 H 145.0751558968658 142.1723961417447 167.1198790562246 H 0.0 **** 0.06
868 H 144.74495118259307 141.09442272852527 168.49738283806022 H 0.0 **** 0.06
869 H 146.25690560015602 140.92233638876348 167.57408569230972 H 0.0 **** 0.06
870 H 144.7066887525541 140.45479387150257 166.83574554346706 H 0.0 **** 0.06
871 C 142.97532399436136 105.74704344085592 163.47731679833393 C 0.0 **** -0.24
872 H 142.4871213782862 105.98402670390306 162.53175858376503 H 0.0 **** 0.06
873 H 144.05379857285072 105.86953721128509 163.36969668294532 H 0.0 **** 0.06
874 H 142.75263844760428 104.71664377384684 163.75218008047267 H 0.0 **** 0.06
875 H 142.6087649106887 106.4184458934588 164.25398427995316 H 0.0 **** 0.06
876 C 140.686970236826 23.827930552768606 162.0794331830668 C 0.0 **** -0.24
877 H 139.99326773434976 24.491274328851205 162.59611980075817 H 0.0 **** 0.06
878 H 140.23652573807786 23.488004870290837 161.146210002928 H 0.0 **** 0.06
879 H 140.9056222904011 22.967837580733914 162.71194763437487 H 0.0 **** 0.06
880 H 141.61075064350413 24.364639284804554 161.8632118050138 H 0.0 **** 0.06
881 C 59.54569274577929 141.71498228022728 39.936334139807286 C 0.0 **** -0.24
882 H 60.6115243072319 141.75757139875756 40.15866589773532 H 0.0 **** 0.06
883 H 59.246807256035524 140.67627283531152 39.79067914969369 H 0.0 **** 0.06
884 H 59.34144186494359 142.28202685394055 39.02807910049893 H 0.0 **** 0.06
885 H 58.983732445189034 142.14256112327803 40.766808187779986 H 0.0 **** 0.06
886 C 170.30417741099276 39.42952002966223 90.44970810078937 C 0.0 **** -0.24
887 H 169.54095672767758 39.21797195301741 91.19883545615579 H 0.0 **** 0.06
888 H 169.9853904442615 40.27321058520994 89.83609718730598 H 0.0 **** 0.06
889 H 170.44555050308458 38.55291018431211 89.81673650560774 H 0.0 **** 0.06
890 H 171.242682546727 39.67464649318583 90.94614771499808 H 0.0 **** 0.06
891 C 147.8493063836656 117.30209130122336 66.89296130774161 C 0.0 **** -0.24
892 H 147.31980715602663 116.59932045294602 66.25008739153579 H 0.0 **** 0.06
893 H 148.53552634009776 117.89804060128986 66.29090748964366 H 0.0 **** 0.06
894 H 148.41144621036185 116.75177361307476 67.648066908584 H 0.0 **** 0.06
895 H 147.13081680134445 117.95859977167123 67.38210186860569 H 0.0 **** 0.06
896 C 64.84804833470248 135.542820891162 70.28068997779289 C 0.0 **** -0.24
897 H 64.4941023395378 136.5350640762802 69.99893669915264 H 0.0 **** 0.06
898 H 64.17528945281511 135.1158778234917 71.02548345971823 H 0.0 **** 0.06
899 H 65.85167599794714 135.62083297291872 70.69909865667393 H 0.0 **** 0.06
900 H 64.87092721392189 134.9016805393235 69.3997349398015 H 0.0 **** 0.06
901 C 163.15913563157193 145.89915379476153 60.424618101392795 C 0.0 **** -0.24
902 H 163.69699773134684 146.16160649398012 61.33579653412468 H 0.0 **** 0.06
903 H 162.4569598436809 145.09254306654378 60.6375817293104 H 0.0 **** 0.06
904 H 163.8683753468417 145.57341738251534 59.66468260424031 H 0.0 **** 0.06
905 H 162.61323722287545 146.76991796611745 60.062227628017354 H 0.0 **** 0.06
906 C 16.504181636947948 95.60303449503914 110.66790457435923 C 0.0 **** -0.24
907 H 16.832428717527563 96.469723868715 111.24104377964125 H 0.0 **** 0.06
908 H 16.926934299848938 94.6978178765367 111.10498382870333 H 0.0 **** 0.06
909 H 16.841773052454982 95.70087752078285 109.63630535308573 H 0.0 **** 0.06
910 H 15.41559047796028 95.54371871412229 110.6892853360066 H 0.0 **** 0.06
911 C 102.0210791461347 75.70401635394205 94.86115393489675 C 0.0 **** -0.24
912 H 101.82757579033233 76.75446252569964 95.07777911419049 H 0.0 **** 0.06
913 H 102.07488903617633 75.14470074004899 95.79492945000814 H 0.0 **** 0.06
914 H 102.9662180450702 75.61171901087488 94.3262017465799 H 0.0 **** 0.06
915 H 101.21481266177096 75.30613614560787 94.24451474101471 H 0.0 **** 0.06
916 C 169.44862580543895 73.35955500401786 56.648302695069574 C 0.0 **** -0.24
917 H 168.50337800361515 72.83756961292971 56.49758094559276 H 0.0 **** 0.06
918 H 169.68283335196418 73.38633246776155 57.71340739936595 H 0.0 **** 0.06
919 H 169.366291990651 74.37733786135448 56.26874328624051 H 0.0 **** 0.06
920 H 170.24159575329332 72.83498364820281 56.114839713941905 H 0.0 **** 0.06
921 C 3.2605618734701807 10.004212477530643 87.42068316039102 C 0.0 **** -0.24
922 H 2.905928748608119 9.006515233941968 87.16143279969306 H 0.0 **** 0.06
923 H 4.304860692129125 10.106836007679078 87.12357609438985 H 0.0 **** 0.06
924 H 3.171804737623802 10.15237686591422 88.4968786202248 H 0.0 **** 0.06
925 H 2.6595451709817155 10.749722024454485 86.90067488683316 H 0.0 **** 0.06
926 C 141.92112327914725 98.99983436782901 134.69857644613984 C 0.0 **** -0.24
927 H 141.36182429134004 98.93321975311184 133.76609894878922 H 0.0 **** 0.06
928 H 142.14726868019562 97.99570975101625 135.05941469062427 H 0.0 **** 0.06
929 H 141.32474483447362 99.52745649990644 135.4433521435048 H 0.0 **** 0.06
930 H 142.8503533280292 99.54193705746007 134.52681108261922 H 0.0 **** 0.06
931 C 65.43759902668317 54.635978433888155 126.722705076052 C 0.0 **** -0.24
932 H 65.82852255800842 55.54374218472671 127.18237120667587 H 0.0 **** 0.06
933 H 66.26662141010739 53.98790882257262 126.43665983594173 H 0.0 **** 0.06
934 H 64.85899330809478 54.897766431525355 125.83677920220333 H 0.0 **** 0.06
935 H 64.79756786619107 54.11437999433315 127.43448760820849 H 0.0 **** 0.06
936 C 98.62173675873339 23.281880061621905 83.2204672520985 C 0.0 **** -0.24
937 H 98.44797708269243 22.757844801794676 84.16011282161475 H 0.0 **** 0.06
938 H 99.25417869018833 24.150870230146353 83.40050463615597 H 0.0 **** 0.06
939 H 97.66811211673075 23.60609809726759 82.80405293030046 H 0.0 **** 0.06
940 H 99.11716786674094 22.61194248260557 82.51677848567462 H 0.0 **** 0.06
941 C 124.24505129696917 106.50593283275126 164.9595578999606 C 0.0 **** -0.24
942 H 124.18129287303333 105.4178629522838 164.9645559362641 H 0.0 **** 0.06
943 H 123.36520347198353 106.91962521599694 164.46605144404154 H 0.0 **** 0.06
944 H 125.14173514550248 106.81439641328078 164.42195350703477 H 0.0 **** 0.06
945 H 124.29278075137296 106.87143419020606 165.98458511839962 H 0.0 **** 0.06
946 C 19.63587517447445 75.91285978207142 79.4074543339089 C 0.0 **** -0.24
947 H 20.652777696828167 76.20966826298827 79.66545082369242 H 0.0 **** 0.06
948 H 19.079488505199464 76.78606404287241 79.06561460444546 H 0.0 **** 0.06
949 H 19.146962518078652 75.48986748752975 80.28530405423702 H 0.0 **** 0.06
950 H 19.66699486407009 75.16695976715333 78.6128727243567 H 0.0 **** 0.06
951 C 161.37900657873675 72.6297307869159 14.29676386502981 C 0.0 **** -0.24
952 H 162.38009227311872 72.29390505223967 14.025642668169482 H 0.0 **** 0.06
953 H 160.79400203311926 72.79293885688662 13.391603661116655 H 0.0 **** 0.06
954 H 161.44880117751748 73.56236586504417 14.857098341440569 H 0.0 **** 0.06
955 H 160.89440393973103 71.87171530338566 14.910874564259672 H 0.0 **** 0.06
956 C 118.83107169464836 15.80652597175979 149.06383323574468 C 0.0 **** -0.24
957 H 117.77051403437858 15.822281925846568 149.31509283424754 H 0.0 **** 0.06
958 H 118.95286001097381 15.49699139653152 148.02601623513738 H 0.0 **** 0.06
959 H 119.34749449993885 15.103203150606227 149.71665071738988 H 0.0 **** 0.06
960 H 119.2505078102563 16.80342451896818 149.1982721001684 H 0.0 **** 0.06
961 C 85.19797305365617 140.8361129720286 96.93705509011559 C 0.0 **** -0.24
962 H 85.61928419032839 139.96437825753625 96.43574209759737 H 0.0 **** 0.06
963 H 85.11264700553743 140.63503279041262 98.00553693199114 H 0.0 **** 0.06
964 H 84.20991015504497 141.04800299353565 96.52662537076196 H 0.0 **** 0.06
965 H 85.84891865709344 141.6957120862555 96.77933586862349 H 0.0 **** 0.06
966 C 83.95532678145504 61.10323930974842 88.29595625023398 C 0.0 **** -0.24
967 H 84.81690130969191 61.14234425151879 88.96267082762358 H 0.0 **** 0.06
968 H 83.64173135766316 62.118759595441176 88.05042683248877 H 0.0 **** 0.06
969 H 83.13810668826883 60.57955899098039 88.79015193843361 H 0.0 **** 0.06
970 H 84.22626288768019 60.57497465572712 87.38229097072576 H 0.0 **** 0.06
971 C 167.216501595131 131.15422519535414 69.30660255850864 C 0.0 **** -0.24
972 H 166.21603741639439 130.74467913258033 69.16480110212402 H 0.0 **** 0.06
973 H 167.6984613637044 131.27826025069123 68.33619990681112 H 0.0 **** 0.06
974 H 167.80437664993934 130.47072378404835 69.9197656228792 H 0.0 **** 0.06
975 H 167.145480586391 132.120402117202 69.80453158113275 H 0.0 **** 0.06
976 C 108.97973140073955 69.0222718046763 147.8961774852712 C 0.0 **** -0.24
977 H 108.13316981138468 68.33659159120991 147.85911931540574 H 0.0 **** 0.06
978 H 108.78979260387362 69.79239586461192 148.6437344183314 H 0.0 **** 0.06
979 H 109.11193776666889 69.48811800343115 146.91940730041506 H 0.0 **** 0.06
980 H 109.88175890257764 68.47122112014166 148.16191553133172 H 0.0 **** 0.06
981 C 4.28499019495888 163.4738458205218 0.9477348401705399 C 0.0 **** -0.24
982 H 3.630607438711877 163.57089633672868 1.8145910092198108 H 0.0 **** 0.06
983 H 4.268671969758827 162.4417767829205 0.5955396663194961 H 0.0 **** 0.06
984 H 5.301772785710568 163.74583426523128 1.2281819629121173 H 0.0 **** 0.06
985 H 3.937590698127366 164.13458333949296 0.15363050261038325 H 0.0 **** 0.06
986 C 168.09029658675252 93.20020374256876 150.41398189004957 C 0.0 **** -0.24
987 H 168.9432256195122 92.69833013849484 150.86922808065145 H 0.0 **** 0.06
988 H 168.24456254685833 93.27453023789283 149.33740733287107 H 0.0 **** 0.06
989 H 167.98775600709683 94.19969461440218 150.8362277933875 H 0.0 **** 0.06
990 H 167.18351167769862 92.62744991119695 150.61216716634124 H 0.0 **** 0.06
991 C 90.44253218988165 28.32978803295721 25.82308364469253 C 0.0 **** -0.24
992 H 89.95811276535561 29.111306612468226 25.238860503874236 H 0.0 **** 0.06
993 H 90.58140871511281 28.674535436317683 26.84765122045991 H 0.0 **** 0.06
994 H 91.41263238735611 28.096183888185948 25.383158735125647 H 0.0 **** 0.06
995 H 89.8190486996634 27.435225721809054 25.822179064349086 H 0.0 **** 0.06
996 C 160.26021843529603 37.99188438670586 10.442499767110831 C 0.0 **** -0.24
997 H 160.32240641409678 38.82638978299376 9.744379740963069 H 0.0 **** 0.06
998 H 160.01288951036753 37.08041572788831 9.897358041961127 H 0.0 **** 0.06
999 H 159.4855124433604 38.19458952865186 11.182220961958052 H 0.0 **** 0.06
1000 H 161.218873008697 37.866097213423316 10.945281198511253 H 0.0 **** 0.06
1001 C 138.46055960708722 128.9526509318711 121.25871689881151 C 0.0 **** -0.24
1002 H 138.9279118122326 129.65943647948947 121.94439269056531 H 0.0 **** 0.06
1003 H 137.8266417458384 129.49378265427558 120.55558688511428 H 0.0 **** 0.06
1004 H 137.85351741375928 128.24580570945784 121.82454619941072 H 0.0 **** 0.06
1005 H 139.23230352241382 128.41281141553495 120.71134520637503 H 0.0 **** 0.06
1006 C 94.34221205927344 110.53812225778881 5.509680054146628 C 0.0 **** -0.24
1007 H 95.336839768257 110.11499260556235 5.368544633896136 H 0.0 **** 0.06
1008 H 93.84939953423685 110.63731239467526 4.542522198994817 H 0.0 **** 0.06
1009 H 94.42856157791806 111.5194991898581 5.976586121336993 H 0.0 **** 0.06
1010 H 93.75583686520679 109.8801844064192 6.150327440665535 H 0.0 **** 0.06
1011 C 104.12027504930995 139.31583558539282 126.61067297913323 C 0.0 **** -0.24
1012 H 103.64166723232063 140.2803090564704 126.44303454122675 H 0.0 **** 0.06
1013 H 104.95956771253901 139.44105267996213 127.2940459822731 H 0.0 **** 0.06
1014 H 104.48004578160447 138.91869234119685 125.66129557303893 H 0.0 **** 0.06
1015 H 103.39907723145433 138.62262317667196 127.04439808569151 H 0.0 **** 0.06
1016 C 107.1795665093612 94.97463352625175 17.515902378059707 C 0.0 **** -0.24
1017 H 107.96593098288017 95.25542914342961 16.815874594693383 H 0.0 **** 0.06
1018 H 106.9864550775817 95.80289991160487 18.198537704208412 H 0.0 **** 0.06
1019 H 107.49577376497527 94.10096989910232 18.08522302894371 H 0.0 **** 0.06
1020 H 106.26945730397694 94.73850446540652 16.96418642259183 H 0.0 **** 0.06
1021 C 148.8351587617795 0.6329900917946816 168.1678175508149 C 0.0 **** -0.24
1022 H 148.84034109136041 0.9395790443398937 167.12119652102797 H 0.0 **** 0.06
1023 H 148.31243848521444 1.3816157424777202 168.76276403551472 H 0.0 **** 0.06
1024 H 149.8608476412253 0.5367645669279568 168.52264304412842 H 0.0 **** 0.06
1025 H 148.3265991962544 -0.3271525422044874 168.2614258212641 H 0.0 **** 0.06
1026 C 58.01053776864275 117.37452880792804 98.28061770772362 C 0.0 **** -0.24
1027 H 58.32855562169726 118.41748371571435 98.30005795056701 H 0.0 **** 0.06
1028 H 58.85696527916511 116.73273697917716 98.52597645556042 H 0.0 **** 0.06
1029 H 57.64236824751674 117.12684958748613 97.28529646446069 H 0.0 **** 0.06
1030 H 57.215333372622624 117.22392946042825 99.00990225858686 H 0.0 **** 0.06
1031 C 124.46552303847369 106.46987344821545 155.69507679729847 C 0.0 **** -0.24
1032 H 125.15851426089759 105.77740271799112 156.17303353282398 H 0.0 **** 0.06
1033 H 123.56226831277499 105.93516265804956 155.40219040046497 H 0.0 **** 0.06
1034 H 124.93633319766806 106.89999440410017 154.81046503324623 H 0.0 **** 0.06
1035 H 124.20817720487571 107.265629959244 156.39318484481544 H 0.0 **** 0.06
1036 C 125.7137308700373 60.58721813550626 26.417697015096422 C 0.0 **** -0.24
1037 H 125.2525201523373 60.978802824999406 27.32537996703408 H 0.0 **** 0.06
1038 H 125.7630082009531 61.37616821147736 25.666596001238503 H 0.0 **** 0.06
1039 H 125.11854980229924 59.75825051396173 26.03635028420655 H 0.0 **** 0.06
1040 H 126.720532987274 60.23795511082287 26.644826926765177 H 0.0 **** 0.06
1041 C 131.34927686098075 5.820832957517553 158.38065485269476 C 0.0 **** -0.24
1042 H 130.3307273615721 5.442844789311323 158.46489277612565 H 0.0 **** 0.06
1043 H 132.03185959375793 5.145441906583699 158.89744586981521 H 0.0 **** 0.06
1044 H 131.40740191156834 6.811494076006284 158.83062283852573 H 0.0 **** 0.06
1045 H 131.62747407556884 5.882873105947169 157.32846878484327 H 0.0 **** 0.06
1046 C 81.92341965695505 11.843010218514223 81.31785719154833 C 0.0 **** -0.24
1047 H 82.83034282114845 12.135458820878284 81.84680365987775 H 0.0 **** 0.06
1048 H 81.49064431904087 12.716679318719912 80.82927963505222 H 0.0 **** 0.06
1049 H 81.20624563877229 11.430024308025622 82.02688133547939 H 0.0 **** 0.06
1050 H 82.16724592990028 11.090070179795816 80.56789569149744 H 0.0 **** 0.06
1051 C 88.47570494283491 29.8315875859835 67.8027288227707 C 0.0 **** -0.24
1052 H 87.4012512328427 29.831167571898405 67.98588239418424 H 0.0 **** 0.06
1053 H 88.85115961182589 28.80869580002235 67.84036374246098 H 0.0 **** 0.06
1054 H 88.97364100571542 30.430623167895803 68.56423075570964 H 0.0 **** 0.06
1055 H 88.67554434058536 30.256005870802923 66.8188627147933 H 0.0 **** 0.06
1056 C 166.08291123989596 61.40883933432289 40.28272794580357 C 0.0 **** -0.24
1057 H 165.16918727310434 61.13770023255975 40.81291972655089 H 0.0 **** 0.06
1058 H 166.22735379635697 62.48788382303255 40.33716622287375 H 0.0 **** 0.06
1059 H 166.00112497368133 61.10456849730559 39.23973205813127 H 0.0 **** 0.06
1060 H 166.93296747367725 60.904565550666945 40.7429828239471 H 0.0 **** 0.06
1061 C 82.8778459146436 60.28966567036538 80.55603149265754 C 0.0 **** -0.24
1062 H 83.56793708287275 60.39573992487422 79.71862022287786 H 0.0 **** 0.06
1063 H 83.43959650695575 60.06311474043051 81.46280332820353 H 0.0 **** 0.06
1064 H 82.1790194536248 59.47977419858037 80.34919934508116 H 0.0 **** 0.06
1065 H 82.3272108787554 61.22026508712784 80.69297295465307 H 0.0 **** 0.06
1066 C 24.214585551136395 1.1685278575693872 105.29004650967676 C 0.0 **** -0.24
1067 H 23.831282032487877 2.0236905225672217 105.84577520685093 H 0.0 **** 0.06
1068 H 23.38549398076634 0.6439715254411453 104.81411685714113 H 0.0 **** 0.06
1069 H 24.728850580817237 0.49237435745376956 105.97232144104674 H 0.0 **** 0.06
1070 H 24.912221109573068 1.51377389459617 104.52668224481903 H 0.0 **** 0.06
1071 C 106.87408421228452 94.03362011283829 46.48815976424987 C 0.0 **** -0.24
1072 H 106.57329823507777 93.39210680758671 45.65915150577224 H 0.0 **** 0.06
1073 H 107.13414262389796 93.41597046971026 47.34789735828417 H 0.0 **** 0.06
1074 H 106.04910205727725 94.69627372648421 46.75140079897437 H 0.0 **** 0.06
1075 H 107.73783198747867 94.62851592902834 46.19205687541459 H 0.0 **** 0.06
1076 C 165.50007381662274 136.0638591492134 131.69105182983037 C 0.0 **** -0.24
1077 H 165.26210267433424 136.95161242147714 131.1060543801957 H 0.0 **** 0.06
1078 H 166.00383690940902 136.35957536899653 132.6106233677653 H 0.0 **** 0.06
1079 H 166.1529014174991 135.41096316793679 131.11114738583547 H 0.0 **** 0.06
1080 H 164.57934116217993 135.53242441331844 131.93471086563898 H 0.0 **** 0.06
1081 C 153.36644995549963 124.905198491303 26.388099256237638 C 0.0 **** -0.24
1082 H 152.6852682300753 125.35568505887176 27.109400489994187 H 0.0 **** 0.06
1083 H 153.58110685586465 123.8778809325245 26.684266883612054 H 0.0 **** 0.06
1084 H 154.29382571310686 125.47636928106218 26.357272428966667 H 0.0 **** 0.06
1085 H 152.90411290576014 124.90946622694591 25.40053384037293 H 0.0 **** 0.06
1086 C 156.14856127691093 122.14655029925444 123.59499927827483 C 0.0 **** -0.24
1087 H 155.4375858785896 121.65166043500545 124.25610303134505 H 0.0 **** 0.06
1088 H 156.2861926884033 121.5459140362654 122.69585253769736 H 0.0 **** 0.06
1089 H 157.10419353432258 122.25775840768046 124.10798948147203 H 0.0 **** 0.06
1090 H 155.766450064995 123.13020323302038 123.3212875252405 H 0.0 **** 0.06
1091 C 160.19187198056767 27.487919432482045 127.56508310083598 C 0.0 **** -0.24
1092 H 159.92832766812518 28.12167714046234 126.71840739898198 H 0.0 **** 0.06
1093 H 159.55352182482474 26.6041333668299 127.57032405785117 H 0.0 **** 0.06
1094 H 160.05116304609578 28.044461813028192 128.49215363992823 H 0.0 **** 0.06
1095 H 161.23492893331553 27.183738162440022 127.48004121240842 H 0.0 **** 0.06
1096 C 99.10106159644835 115.53516348136867 8.95087778302684 C 0.0 **** -0.24
1097 H 99.4828093266755 114.69941333320708 9.537801595561838 H 0.0 **** 0.06
1098 H 99.60538592433167 115.56030187605853 7.984199834675657 H 0.0 **** 0.06
1099 H 99.28840201005255 116.4675564471707 9.484050484122157 H 0.0 **** 0.06
1100 H 98.02905821269226 115.41300051874049 8.798391323767007 H 0.0 **** 0.06
1101 C 107.06847808781217 150.59738570351277 7.453563203833596 C 0.0 **** -0.24
1102 H 107.8710551843846 151.11852374025838 6.932154226926173 H 0.0 **** 0.06
1103 H 107.44109666203684 149.6476009375007 7.836873097654006 H 0.0 **** 0.06
1104 H 106.24669440818224 150.413741655305 6.761805574358448 H 0.0 **** 0.06
1105 H 106.71603673082546 151.21141649288535 8.282404846181237 H 0.0 **** 0.06
1106 C 18.047021181685203 5.717817168069018 36.506300233656646 C 0.0 **** -0.24
1107 H 18.19720962412857 5.187971449203637 35.565571720501225 H 0.0 **** 0.06
1108 H 17.204011589213053 5.279391007651512 37.0402257995151 H 0.0 **** 0.06
1109 H 17.84130240768178 6.768941734603814 36.302280292593196 H 0.0 **** 0.06
1110 H 18.9467858050616 5.6361713643254845 37.117331994008964 H 0.0 **** 0.06
1111 C 141.36038670752947 132.15020566899074 6.520847823054908 C 0.0 **** -0.24
1112 H 140.5568950472894 131.83693205177102 7.188143112552893 H 0.0 **** 0.06
1113 H 140.94699519146783 132.76039312353475 5.716578611443822 H 0.0 **** 0.06
1114 H 141.84397280970595 131.27019688406776 6.097552196998265 H 0.0 **** 0.06
1115 H 142.09173193736416 132.7333809830319 7.080029260586912 H 0.0 **** 0.06
1116 C 142.8932400242435 52.13327205556206 63.38168035126091 C 0.0 **** -0.24
1117 H 143.19468056700543 52.863723744388835 64.1320456602532 H 0.0 **** 0.06
1118 H 143.71798547003482 51.962602202450995 62.68869696286481 H 0.0 **** 0.06
1119 H 142.02941959432886 52.51022244423547 62.83356916624567 H 0.0 **** 0.06
1120 H 142.63135642568164 51.195213754866785 63.87250601058628 H 0.0 **** 0.06
1121 C 102.10912313605348 99.41832910463896 40.857839211618625 C 0.0 **** -0.24
1122 H 101.61425385396726 100.38837079021226 40.80709754573806 H 0.0 **** 0.06
1123 H 102.99551265063693 99.42990829872085 40.223181232917625 H 0.0 **** 0.06
1124 H 101.42545161165742 98.64286953571533 40.51323092404826 H 0.0 **** 0.06
1125 H 102.402615690152 99.2141229282536 41.88723181215906 H 0.0 **** 0.06
1126 C 135.46866319528291 24.287731377100556 172.48357310310607 C 0.0 **** -0.24
1127 H 134.9641166167646 23.815601777856955 171.6404998081574 H 0.0 **** 0.06
1128 H 135.4604715623332 25.370647976651412 172.35098809837504 H 0.0 **** 0.06
1129 H 136.49899990133184 23.935481861317953 172.53485410761624 H 0.0 **** 0.06
1130 H 134.9497715048464 24.030831460793934 173.40666736187652 H 0.0 **** 0.06
1131 C 87.85914096909318 154.9096718406783 127.61021421891579 C 0.0 **** -0.24
1132 H 86.88367519510768 155.39372087879647 127.58260633039674 H 0.0 **** 0.06
1133 H 88.51877186630372 155.45909942205634 128.28279702583498 H 0.0 **** 0.06
1134 H 88.28845331595721 154.8998223047737 126.60748986514608 H 0.0 **** 0.06
1135 H 87.7467289032491 153.88578899445918 127.9666221688891 H 0.0 **** 0.06
1136 C 171.1576750160247 167.8002185357512 31.554228670125553 C 0.0 **** -0.24
1137 H 171.06654022177528 167.27879168808707 30.60140776585166 H 0.0 **** 0.06
1138 H 171.4429393213923 167.09052123726156 32.33059469005116 H 0.0 **** 0.06
1139 H 170.2011239181696 168.2564620525728 31.811631218535467 H 0.0 **** 0.06
1140 H 171.91846083371263 168.57601359435657 31.47258229979542 H 0.0 **** 0.06
1141 C 32.856845458033646 38.821485858587906 15.019712751613298 C 0.0 **** -0.24
1142 H 33.8651039372496 38.83992834241961 15.433492765537977 H 0.0 **** 0.06
1143 H 32.203125825540866 38.25432225159348 15.682618687797628 H 0.0 **** 0.06
1144 H 32.87609779417795 38.35013808578357 14.036807453672822 H 0.0 **** 0.06
1145 H 32.484413382156106 39.84144112482055 14.926306228215651 H 0.0 **** 0.06
1146 C 26.210055105341326 124.55384744409412 154.40164733376048 C 0.0 **** -0.24
1147 H 26.787163496271717 124.50291665922273 153.47759312268872 H 0.0 **** 0.06
1148 H 26.450776153061867 123.69459510463844 155.02756903619186 H 0.0 **** 0.06
1149 H 25.14646391217346 124.54684960810536 154.16602485487817 H 0.0 **** 0.06
1150 H 26.45802658211096 125.472515633129 154.9329721687328 H 0.0 **** 0.06
1151 C 143.93674314623593 87.16614665698853 171.37291535483428 C 0.0 **** -0.24
1152 H 143.27566101457606 86.5733313596678 170.74038184883653 H 0.0 **** 0.06
1153 H 143.829710805644 86.846124287328 172.40972583258602 H 0.0 **** 0.06
1154 H 143.67329371767266 88.22010752029325 171.2874632246553 H 0.0 **** 0.06
1155 H 144.9692369164683 87.02326748503714 171.05306482708875 H 0.0 **** 0.06
1156 C 34.50711986779834 106.47756113546558 118.31608584147156 C 0.0 **** -0.24
1157 H 34.262500514521605 105.94721316650214 119.23683803989164 H 0.0 **** 0.06
1158 H 34.035787046335315 105.97567385983712 117.47067367124993 H 0.0 **** 0.06
1159 H 35.58863929745888 106.48530464822122 118.17790130227516 H 0.0 **** 0.06
1160 H 34.14182591781861 107.50301088478597 118.37901715593182 H 0.0 **** 0.06
1161 C 148.88824382697268 39.10067238678056 166.37067094707513 C 0.0 **** -0.24
1162 H 148.6673578381558 40.12307230981855 166.06340725978544 H 0.0 **** 0.06
1163 H 149.77628696514859 39.09469250187382 167.00251571015855 H 0.0 **** 0.06
1164 H 149.06536249248802 38.485950062494 165.48860768138556 H 0.0 **** 0.06
1165 H 148.041660402506 38.6988068566576 166.92895746480045 H 0.0 **** 0.06
1166 C 109.75835831538006 77.47766290125638 10.329139285523752 C 0.0 **** -0.24
1167 H 109.09271524064508 77.43579279115195 11.191545448095695 H 0.0 **** 0.06
1168 H 109.46081190487422 76.72187497451363 9.60326471809364 H 0.0 **** 0.06
1169 H 110.78172959711776 77.28958662830357 10.652242506008122 H 0.0 **** 0.06
1170 H 109.6971657102082 78.46495266872381 9.872596262319405 H 0.0 **** 0.06
1171 C 36.159063249013585 146.6435287522975 107.03603129317958 C 0.0 **** -0.24
1172 H 37.06326339402277 147.2500353511155 106.9727378055909 H 0.0 **** 0.06
1173 H 36.43144362246939 145.5892665112415 107.06653050656152 H 0.0 **** 0.06
1174 H 35.534386890251085 146.83244311811976 106.16275641903107 H 0.0 **** 0.06
1175 H 35.60899280122412 146.90479543858243 107.93991978139798 H 0.0 **** 0.06
1176 C 116.10287220395986 64.70319450672704 133.85186194508674 C 0.0 **** -0.24
1177 H 116.5707134323857 64.70916656788116 134.8366721414779 H 0.0 **** 0.06
1178 H 116.04612852696488 65.72288918263958 133.47022321118496 H 0.0 **** 0.06
1179 H 115.09879597739098 64.28828312410536 133.92994916416416 H 0.0 **** 0.06
1180 H 116.69628283093428 64.09271931951486 133.17146055685654 H 0.0 **** 0.06
1181 C 122.713095443275 48.07215655497174 2.4116280282774625 C 0.0 **** -0.24
1182 H 123.69248086523186 48.550167287805266 2.3683133603506192 H 0.0 **** 0.06
1183 H 121.9716635258282 48.7945622208797 2.750891806559274 H 0.0 **** 0.06
1184 H 122.74928409935222 47.23341052190875 3.10666015115752 H 0.0 **** 0.06
1185 H 122.44183925494207 47.71048850919945 1.4198273988297672 H 0.0 **** 0.06
1186 C 11.677572905432868 52.44060387406944 169.1095073806211 C 0.0 **** -0.24
1187 H 10.588134002607717 52.412834165686434 169.1167111358264 H 0.0 **** 0.06
1188 H 12.019441999059694 53.03110184975634 168.25917517306524 H 0.0 **** 0.06
1189 H 12.065303198207658 51.42532939819165 169.0276835723147 H 0.0 **** 0.06
1190 H 12.034612180116369 52.89345469722633 170.03471670082195 H 0.0 **** 0.06
1191 C 35.26366695580589 111.40680085840347 125.49761525989462 C 0.0 **** -0.24
1192 H 36.31619649616698 111.4693107624251 125.22041808010911 H 0.0 **** 0.06
1193 H 35.16063577965184 110.79357815962288 126.39295692027557 H 0.0 **** 0.06
1194 H 34.69940880763261 110.95717161237377 124.68126641474481 H 0.0 **** 0.06
1195 H 34.88122468073004 112.40752466886255 125.6959808750907 H 0.0 **** 0.06
1196 C 129.88277065029132 171.27210573402397 121.556831289189 C 0.0 **** -0.24
1197 H 129.57528118289466 171.1229101138279 120.5217684499872 H 0.0 **** 0.06
1198 H 130.81801154415604 171.8310256264573 121.58181524035734 H 0.0 **** 0.06
1199 H 130.0247171602243 170.30325950052526 122.0361457598539 H 0.0 **** 0.06
1200 H 129.11158534124715 171.82992193021755 122.08730793592878 H 0.0 **** 0.06
1201 C 97.80663370685295 99.59154814227887 38.83129329589579 C 0.0 **** -0.24
1202 H 97.7587223325053 98.53402770392478 38.56902388331582 H 0.0 **** 0.06
1203 H 97.32801378113263 100.18009595969102 38.04846469174771 H 0.0 **** 0.06
1204 H 98.84878610635363 99.89478163407608 38.927760851777066 H 0.0 **** 0.06
1205 H 97.29037809817703 99.75547968857575 39.77686918551552 H 0.0 **** 0.06
1206 C 103.38902601955334 11.924874942293513 32.57908460503944 C 0.0 **** -0.24
1207 H 103.1991814766883 10.900886812388762 32.25655932122652 H 0.0 **** 0.06
1208 H 104.44415402384766 12.036640340746203 32.82844894001654 H 0.0 **** 0.06
1209 H 102.78270281696115 12.146991054630348 33.45674272057644 H 0.0 **** 0.06
1210 H 103.12990020145742 12.612762414635881 31.774806795106073 H 0.0 **** 0.06
1211 C 100.40346575947152 53.30099061555866 5.151850244470495 C 0.0 **** -0.24
1212 H 99.93959506575848 53.1410700328113 4.178760033209159 H 0.0 **** 0.06
1213 H 99.67826715734 53.08900164542696 5.938707221259904 H 0.0 **** 0.06
1214 H 100.73329277605811 54.33691663829403 5.231213983365137 H 0.0 **** 0.06
1215 H 101.2611417969799 52.63717802793532 5.259946699926331 H 0.0 **** 0.06
1216 C 97.69437858785076 36.11295704474571 152.06408441113572 C 0.0 **** -0.24
1217 H 96.99795648359148 36.424810700598925 151.28562327569117 H 0.0 **** 0.06
1218 H 98.36496025978659 35.35109453876211 151.666374801725 H 0.0 **** 0.06
1219 H 97.13796387128622 35.7047098998614 152.90730211369325 H 0.0 **** 0.06
1220 H 98.27681935951463 36.97363311376725 152.39527420717334 H 0.0 **** 0.06
1221 C 37.3823687177524 57.862355848573316 62.84994371507156 C 0.0 **** -0.24
1222 H 36.38184280416948 57.64865417598915 63.22653591982865 H 0.0 **** 0.06
1223 H 37.702250852644966 58.840946005949974 63.20611063213083 H 0.0 **** 0.06
1224 H 37.36812730220538 57.85749578630973 61.76031270840585 H 0.0 **** 0.06
1225 H 38.07527184496473 57.100253257487026 63.208479794126774 H 0.0 **** 0.06
1226 C 84.58467034542372 19.102122060409975 7.088889587998402 C 0.0 **** -0.24
1227 H 84.63704178997395 18.55321977142581 6.148311727691514 H 0.0 **** 0.06
1228 H 85.59002038203111 19.384745024998928 7.401231948984837 H 0.0 **** 0.06
1229 H 84.12937917331277 18.47076217331216 7.8517085823087385 H 0.0 **** 0.06
1230 H 83.98017318172738 19.999845936980186 6.9519141851926065 H 0.0 **** 0.06
1231 C 40.3035584945315 101.19160428770226 102.41813809868057 C 0.0 **** -0.24
1232 H 39.86565451582095 100.36148176065404 102.97229319999158 H 0.0 **** 0.06
1233 H 40.45024923557776 102.03817880563491 103.08911992112783 H 0.0 **** 0.06
1234 H 39.63300818475713 101.48090464831654 101.60903441864932 H 0.0 **** 0.06
1235 H 41.263726036785954 100.88465600998512 102.00311612523993 H 0.0 **** 0.06
1236 C 13.765994718110107 94.38536202320023 26.86695419752175 C 0.0 **** -0.24
1237 H 13.156679938949708 95.09518340577947 26.306679876027317 H 0.0 **** 0.06
1238 H 13.397676914630324 93.37420412242224 26.69311264205936 H 0.0 **** 0.06
1239 H 13.707452954784856 94.61562194073804 27.9306061184775 H 0.0 **** 0.06
1240 H 14.802105952018195 94.4570101186035 26.536126075161462 H 0.0 **** 0.06
1241 C 158.56290075816366 154.9554812561591 130.60272693819616 C 0.0 **** -0.24
1242 H 157.77350509875635 154.94408691574165 131.35447746553947 H 0.0 **** 0.06
1243 H 158.1204192856528 154.8508821868501 129.6112440020056 H 0.0 **** 0.06
1244 H 159.2490853910645 154.12825883308915 130.7836133411105 H 0.0 **** 0.06
1245 H 159.10652188879885 155.89818015768344 130.66090784658354 H 0.0 **** 0.06
1246 C 15.348449316822212 155.1116740323714 126.75378939688156 C 0.0 **** -0.24
1247 H 16.087960304482493 154.7255300143359 127.45567435619512 H 0.0 **** 0.06
1248 H 15.265345496962652 154.43397889551915 125.90418464235657 H 0.0 **** 0.06
1249 H 15.65828926007265 156.09703764148477 126.40524390277662 H 0.0 **** 0.06
1250 H 14.382517732013639 155.19066381583352 127.25220785652326 H 0.0 **** 0.06
1251 C 153.5521471980588 165.52405296711942 35.07847604147935 C 0.0 **** -0.24
1252 H 154.6210851771383 165.34539084701703 34.960570831870314 H 0.0 **** 0.06
1253 H 152.99674692624146 164.85086677591744 34.424692359804624 H 0.0 **** 0.06
1254 H 153.32497584914233 166.55705466666168 34.81480417089625 H 0.0 **** 0.06
1255 H 153.26614708413547 165.3431022688246 36.11518766887383 H 0.0 **** 0.06
1256 C 23.037952926827415 48.843000750200915 154.67858255286376 C 0.0 **** -0.24
1257 H 23.15217509435675 47.84758714676266 154.24943428191864 H 0.0 **** 0.06
1258 H 24.020482494162195 49.297804970915735 154.80705423181598 H 0.0 **** 0.06
1259 H 22.542640363307328 48.76662360672056 155.64585249679283 H 0.0 **** 0.06
1260 H 22.436111198609268 49.45956312598035 154.0096105012886 H 0.0 **** 0.06
1261 C 144.72021338782028 50.90767479267534 145.83840640268647 C 0.0 **** -0.24
1262 H 145.01366524284194 50.33977775161016 144.95511643633637 H 0.0 **** 0.06
1263 H 144.7064333372039 50.247539461229024 146.70648167539176 H 0.0 **** 0.06
1264 H 143.72586950081006 51.328495790562314 145.68561852195944 H 0.0 **** 0.06
1265 H 145.43413955663226 51.71429250974087 146.00610696505868 H 0.0 **** 0.06
1266 C 148.89376497487623 17.3497827179566 111.69608573834827 C 0.0 **** -0.24
1267 H 148.01012367925392 16.71078740480931 111.69759053807996 H 0.0 **** 0.06
1268 H 148.8506168166467 18.029950451455164 112.5463387928618 H 0.0 **** 0.06
1269 H 148.92411338187662 17.924997191312855 110.76998503829657 H 0.0 **** 0.06
1270 H 149.7885553459377 16.731561639161356 111.76872233508519 H 0.0 **** 0.06
1271 C 158.9619589318238 69.45978269449232 121.00994375219284 C 0.0 **** -0.24
1272 H 159.62181894218807 68.59658562769958 120.9256777312253 H 0.0 **** 0.06
1273 H 159.0968501879137 69.92426867705234 121.98684308727238 H 0.0 **** 0.06
1274 H 157.92606420077306 69.13801412911484 120.90021090868038 H 0.0 **** 0.06
1275 H 159.20380039554476 70.1795553683248 120.22804977964861 H 0.0 **** 0.06
1276 C 148.4612143961462 107.68007130634396 128.8211300333435 C 0.0 **** -0.24
1277 H 147.92957615318056 107.56299336126693 127.87785453652265 H 0.0 **** 0.06
1278 H 147.78052316619187 108.07507522827325 129.57566071689345 H 0.0 **** 0.06
1279 H 149.2942721666717 108.37076200878514 128.6865331576334 H 0.0 **** 0.06
1280 H 148.8416927379434 106.71186040061411 129.14631006636913 H 0.0 **** 0.06
1281 C 133.20687709324756 39.88586526073618 168.53530178606215 C 0.0 **** -0.24
1282 H 132.2357095273969 39.895597798649476 168.04055132371204 H 0.0 **** 0.06
1283 H 133.06710286694178 39.99583810685431 169.61087946101088 H 0.0 **** 0.06
1284 H 133.81298625820304 40.71138049416709 168.16117549130587 H 0.0 **** 0.06
1285 H 133.71023191008814 38.94232280153585 168.32859984481937 H 0.0 **** 0.06
1286 C 154.1016139120067 137.18435444340258 11.735052320687828 C 0.0 **** -0.24
1287 H 154.1998826925684 138.25830208393856 11.893904142868962 H 0.0 **** 0.06
1288 H 154.23034282216383 136.96063362241554 10.675293342476436 H 0.0 **** 0.06
1289 H 153.11387990870043 136.85805574142913 12.058851406877125 H 0.0 **** 0.06
1290 H 154.86464909429455 136.66126471148837 12.31227208285162 H 0.0 **** 0.06
1291 C 24.675001326257814 124.83269108997939 125.92004232319448 C 0.0 **** -0.24
1292 H 24.665043146216874 123.7500535983954 126.04858063996852 H 0.0 **** 0.06
1293 H 25.10098744083956 125.29969784104543 126.80897581678101 H 0.0 **** 0.06
1294 H 23.65620650441261 125.19107987772298 125.77316561030375 H 0.0 **** 0.06
1295 H 25.279781493861265 125.08874750138338 125.05018299857522 H 0.0 **** 0.06
1296 C 85.85605456931506 128.26377319930205 129.83941865391927 C 0.0 **** -0.24
1297 H 85.40519370130465 129.05480276228835 129.23978217556157 H 0.0 **** 0.06
1298 H 86.55434435687795 128.70218328895314 130.55190172916286 H 0.0 **** 0.06
1299 H 86.38787218091176 127.5710550843331 129.18720486586056 H 0.0 **** 0.06
1300 H 85.07470180527542 127.72746631589223 130.37815975842346 H 0.0 **** 0.06
1301 C 97.40764862462865 153.92820206943588 62.50581992584911 C 0.0 **** -0.24
1302 H 98.05789256785545 154.8021762590358 62.541346111362415 H 0.0 **** 0.06
1303 H 97.76342477796163 153.24336544726424 61.735746339546466 H 0.0 **** 0.06
1304 H 96.39044012689169 154.24144972378005 62.27380069347495 H 0.0 **** 0.06
1305 H 97.42194752057469 153.42679846308843 63.47392331421871 H 0.0 **** 0.06
1306 C 108.06668091508391 104.98731080516569 68.22674770309173 C 0.0 **** -0.24
1307 H 108.57286448842157 104.39323075805197 67.46632068281811 H 0.0 **** 0.06
1308 H 106.99088187808914 104.95925219123492 68.05393471687027 H 0.0 **** 0.06
1309 H 108.41679294904372 106.01920016355544 68.17327658704349 H 0.0 **** 0.06
1310 H 108.28766259202416 104.57936073743059 69.21270206564212 H 0.0 **** 0.06
1311 C 154.24371585390276 137.13702829644478 31.349364928875588 C 0.0 **** -0.24
1312 H 155.0527716359514 137.638062903156 30.818020177580507 H 0.0 **** 0.06
1313 H 153.44904850411064 137.85271712058568 31.560967163736677 H 0.0 **** 0.06
1314 H 154.62337961316842 136.7286847975804 32.286633960178534 H 0.0 **** 0.06
1315 H 153.85014742144244 136.3287545849476 30.734018972200488 H 0.0 **** 0.06
1316 C 93.30073590528593 2.7552839338740114 78.84799273165191 C 0.0 **** -0.24
1317 H 93.18532830236882 1.6834852717305466 78.6820923407517 H 0.0 **** 0.06
1318 H 92.32282230503148 3.2357261905478936 78.80401045568533 H 0.0 **** 0.06
1319 H 93.94722838503452 3.174341108794124 78.07663823774391 H 0.0 **** 0.06
1320 H 93.7461875415558 2.9245039668062986 79.82844090054431 H 0.0 **** 0.06
1321 C 128.93517516213933 30.189718842259396 15.300797006269647 C 0.0 **** -0.24
1322 H 128.8082171294465 30.754804316764023 16.223858885104846 H 0.0 **** 0.06
1323 H 128.86657374874562 30.86636067430257 14.44816290992702 H 0.0 **** 0.06
1324 H 128.15304287374354 29.432604844443972 15.227709907562769 H 0.0 **** 0.06
1325 H 129.91044155184065 29.704780589059453 15.30334550110652 H 0.0 **** 0.06
1326 C 10.607550558228432 76.55112977878572 112.06266604750013 C 0.0 **** -0.24
1327 H 9.686908791880128 76.67568957732699 112.63241140166431 H 0.0 **** 0.06
1328 H 10.365365342187332 76.41229677633467 111.00843744906408 H 0.0 **** 0.06
1329 H 11.146537343970223 75.67775625672274 112.43050043196706 H 0.0 **** 0.06
1330 H 11.228965703563404 77.43843365913398 112.17927306713662 H 0.0 **** 0.06
1331 C 79.63126660039795 9.648925334306995 54.3858316832908 C 0.0 **** -0.24
1332 H 78.56356346831595 9.604642762602133 54.173769834745656 H 0.0 **** 0.06
1333 H 80.18120324538918 9.773003566488583 53.45273336324834 H 0.0 **** 0.06
1334 H 79.9441701410367 8.726248468270335 54.87240428965754 H 0.0 **** 0.06
1335 H 79.83607451346533 10.49385843274932 55.04353220177768 H 0.0 **** 0.06
1336 C 144.5796191895858 147.52804014030096 172.7596037701793 C 0.0 **** -0.24
1337 H 143.57799464194198 147.13351253021426 172.92517963087212 H 0.0 **** 0.06
1338 H 144.63083723638627 148.55346985000867 173.1258138341691 H 0.0 **** 0.06
1339 H 144.80554209591435 147.51148090246366 171.69342047640131 H 0.0 **** 0.06
1340 H 145.30479790850148 146.9149285126084 173.29397079881244 H 0.0 **** 0.06
1341 C 69.03643180700101 132.51394090196695 102.92499656803298 C 0.0 **** -0.24
1342 H 68.18896819289654 132.40551570318092 103.60267688702149 H 0.0 **** 0.06
1343 H 69.46462917603077 131.53328078020283 102.71931014929197 H 0.0 **** 0.06
1344 H 69.79106643369107 133.15193173078788 103.38711508336601 H 0.0 **** 0.06
1345 H 68.69991112649234 132.9666438989174 101.99192581356468 H 0.0 **** 0.06
1346 C 169.76133029365212 103.14849611576457 37.766481231092285 C 0.0 **** -0.24
1347 H 169.1954918154366 104.07983396395699 37.74475999185137 H 0.0 **** 0.06
1348 H 170.47828525608912 103.13940881761852 36.94488996028508 H 0.0 **** 0.06
1349 H 169.07774641830133 102.30628411291724 37.66124720190368 H 0.0 **** 0.06
1350 H 170.29353760076802 103.06782406427351 38.714299034059934 H 0.0 **** 0.06
1351 C 80.10772850683772 52.69455908718922 159.16923298276618 C 0.0 **** -0.24
1352 H 80.93985524137062 52.452621180388036 159.83005241297474 H 0.0 **** 0.06
1353 H 79.93526715180934 53.77198289380341 159.18269706029002 H 0.0 **** 0.06
1354 H 79.21060899977415 52.178710731365726 159.510643632261 H 0.0 **** 0.06
1355 H 80.34538317218554 52.37735999429678 158.1534208915142 H 0.0 **** 0.06
1356 C 141.27516578177824 11.301547281404083 67.62978977969226 C 0.0 **** -0.24
1357 H 141.09978864175037 12.294506473395018 68.04386355215473 H 0.0 **** 0.06
1358 H 142.00818196756117 10.777510781489411 68.24306965168233 H 0.0 **** 0.06
1359 H 141.65324309084008 11.394353946303795 66.61188622599485 H 0.0 **** 0.06
1360 H 140.34013295122838 10.74186506244638 67.62092463352377 H 0.0 **** 0.06
1361 C 103.12700712018389 14.45814958341873 164.46309770403414 C 0.0 **** -0.24
1362 H 102.84410090443515 14.847997824253014 165.44041882899694 H 0.0 **** 0.06
1363 H 102.49796496314693 13.602535167941909 164.21762648456894 H 0.0 **** 0.06
1364 H 104.17239629442398 14.147824132850872 164.48430656265504 H 0.0 **** 0.06
1365 H 102.99407321315095 15.235102898080015 163.71006296630674 H 0.0 **** 0.06
1366 C 171.9999302452838 105.85206877496455 72.49298668765793 C 0.0 **** -0.24
1367 H 172.38716739982624 104.95173929071657 72.96957076114634 H 0.0 **** 0.06
1368 H 172.6754334216374 106.68522639630768 72.68954469275842 H 0.0 **** 0.06
1369 H 171.014126930138 106.08115764887822 72.89570278011261 H 0.0 **** 0.06
1370 H 171.92507829356 105.69027424172222 71.41840823329942 H 0.0 **** 0.06
1371 C 136.4946134820736 69.72044247272986 61.080889933973324 C 0.0 **** -0.24
1372 H 136.41673516235193 69.29409298649831 60.08093130570275 H 0.0 **** 0.06
1373 H 136.73162232233562 70.78200173921076 61.00537875984928 H 0.0 **** 0.06
1374 H 137.28248785605797 69.20966042880396 61.63267413435513 H 0.0 **** 0.06
1375 H 135.5457688135976 69.59583856325995 61.603316832490435 H 0.0 **** 0.06
1376 C 48.85142078740114 103.405674574425 136.43264443756848 C 0.0 **** -0.24
1377 H 48.32585766949791 102.81691868785458 135.6811578537796 H 0.0 **** 0.06
1378 H 49.74146900400524 102.86678581617755 136.75843928233832 H 0.0 **** 0.06
1379 H 48.195502596533345 103.57467797014823 137.28653691272785 H 0.0 **** 0.06
1380 H 49.14376277734118 104.36413785766646 136.0029800358966 H 0.0 **** 0.06
1381 C 86.85210884464989 2.1208241439098288 140.52922467680202 C 0.0 **** -0.24
1382 H 86.86023875080261 2.949895279062204 139.8225018821956 H 0.0 **** 0.06
1383 H 87.87422522486004 1.7846090804807773 140.7069259880502 H 0.0 **** 0.06
1384 H 86.26662338361749 1.2988708017510007 140.1170394409063 H 0.0 **** 0.06
1385 H 86.40781986535018 2.4480720643964275 141.46926631848382 H 0.0 **** 0.06
1386 C 151.90397773191523 96.9335710125994 169.88212488077738 C 0.0 **** -0.24
1387 H 151.3563885132345 97.65187641239714 170.4916710763809 H 0.0 **** 0.06
1388 H 152.94512661984248 96.90250434227667 170.20367588315236 H 0.0 **** 0.06
1389 H 151.8555854421282 97.23428527985223 168.83533822017802 H 0.0 **** 0.06
1390 H 151.45872032851156 95.94551424647725 169.9968238104435 H 0.0 **** 0.06
1391 C 117.2299817555658 94.98070081548877 157.95077515542022 C 0.0 **** -0.24
1392 H 117.70441038167337 95.85968294004721 158.38730590188425 H 0.0 **** 0.06
1393 H 117.16360548479975 95.1028440314229 156.8693439599714 H 0.0 **** 0.06
1394 H 116.22935130910497 94.8633667151473 158.36675785052796 H 0.0 **** 0.06
1395 H 117.82444152973062 94.09623991390472 158.18069837542794 H 0.0 **** 0.06
1396 C 39.40447609409088 33.87943142786614 52.48222920790123 C 0.0 **** -0.24
1397 H 38.73594109228122 34.65744510370632 52.114328620228946 H 0.0 **** 0.06
1398 H 38.87994159672735 32.92399873686412 52.49118007940544 H 0.0 **** 0.06
1399 H 39.727619690044264 34.12689410789831 53.49361817184341 H 0.0 **** 0.06
1400 H 40.27522521678088 33.809932694860905 51.8299492927912 H 0.0 **** 0.06
1401 C 72.25308037555203 131.44883255979073 47.79322739634583 C 0.0 **** -0.24
1402 H 72.96990573992468 130.75866085887648 48.23995511099952 H 0.0 **** 0.06
1403 H 72.77444182617023 132.3462296298029 47.457474554349375 H 0.0 **** 0.06
1404 H 71.50041813579423 131.7193558917536 48.53288125291621 H 0.0 **** 0.06
1405 H 71.76999722110622 130.96831948850732 46.94196770526682 H 0.0 **** 0.06
1406 C 152.53318952115097 76.93469472984935 143.44131467742287 C 0.0 **** -0.24
1407 H 152.4512420309136 75.94957363007109 143.90011332683116 H 0.0 **** 0.06
1408 H 153.09156692815034 77.59746297547868 144.10264524333653 H 0.0 **** 0.06
1409 H 151.5355872654748 77.34261528476547 143.27590678893495 H 0.0 **** 0.06
1410 H 153.05298552549976 76.84915780229295 142.48691709746228 H 0.0 **** 0.06
1411 C 43.97344837400364 164.03867471318333 110.87164016165946 C 0.0 **** -0.24
1412 H 43.32738860077407 163.85171460844109 110.01348347864797 H 0.0 **** 0.06
1413 H 43.46365996179807 163.7288701823196 111.78402008141768 H 0.0 **** 0.06
1414 H 44.204818883424466 165.10295540373775 110.9266357629347 H 0.0 **** 0.06
1415 H 44.897935288137774 163.47197274674252 110.76033870168001 H 0.0 **** 0.06
1416 C 142.0032299052089 26.255007173708357 48.74021036211579 C 0.0 **** -0.24
1417 H 141.3802114615504 26.644160010060325 49.54475572431619 H 0.0 **** 0.06
1418 H 142.3712974877041 27.082014048559415 48.1331740672954 H 0.0 **** 0.06
1419 H 141.41344926038607 25.58137178354155 48.117550445751974 H 0.0 **** 0.06
1420 H 142.84710380441686 25.711676293156636 49.16457761156781 H 0.0 **** 0.06
1421 C 4.686769058943192 26.723100137740666 134.38213564712322 C 0.0 **** -0.24
1422 H 4.00863883194009 27.391656897774276 133.85155818291656 H 0.0 **** 0.06
1423 H 5.508763625345189 27.30098393283609 134.80553434719218 H 0.0 **** 0.06
1424 H 5.082781395042957 25.98326179754909 133.68710642377536 H 0.0 **** 0.06
1425 H 4.145892947383452 26.217584963690037 135.1817321750442 H 0.0 **** 0.06
1426 C 45.20106065699811 105.1986613638064 102.97800564086293 C 0.0 **** -0.24
1427 H 44.19440451497411 105.4986433361062 103.2688018024813 H 0.0 **** 0.06
1428 H 45.83088794143657 106.08432869017614 102.87984130388864 H 0.0 **** 0.06
1429 H 45.162615310578346 104.67260509306382 102.02470930224771 H 0.0 **** 0.06
1430 H 45.61831936170175 104.53911260066837 103.73969968738143 H 0.0 **** 0.06
1431 C 162.87028854564835 160.53033517157104 85.4707873250604 C 0.0 **** -0.24
1432 H 162.7236681742345 159.50161534888247 85.80069214767798 H 0.0 **** 0.06
1433 H 162.62052342827036 160.610687604732 84.41157104290536 H 0.0 **** 0.06
1434 H 163.91161789119946 160.81477679000625 85.62149678592459 H 0.0 **** 0.06
1435 H 162.22418449424606 161.1919237235091 86.04790891622139 H 0.0 **** 0.06
1436 C 9.487855835104327 126.46406250595317 45.94455271176366 C 0.0 **** -0.24
1437 H 9.068984666313355 126.25949049770077 44.95923275156309 H 0.0 **** 0.06
1438 H 8.683819454575541 126.50062024132825 46.6796195227912 H 0.0 **** 0.06
1439 H 10.00858020764985 127.4211455949715 45.92599855010275 H 0.0 **** 0.06
1440 H 10.18893277562654 125.6737403406629 46.21187493104338 H 0.0 **** 0.06
1441 C 83.61422518486899 132.39482801166622 62.870356155922536 C 0.0 **** -0.24
1442 H 83.51862905367169 131.40635924381823 63.321613408829194 H 0.0 **** 0.06
1443 H 83.64152366803879 132.2967324853073 61.78468987584034 H 0.0 **** 0.06
1444 H 84.53543760223941 132.8635941785846 63.21626531415711 H 0.0 **** 0.06
1445 H 82.76184361120808 133.00970577737417 63.15928897057509 H 0.0 **** 0.06
1446 C 108.40277051542333 43.31695549240305 96.02463535528821 C 0.0 **** -0.24
1447 H 108.3569283650196 42.766716079705986 96.96361470944754 H 0.0 **** 0.06
1448 H 107.39241341225119 43.459322443230576 95.63779503430729 H 0.0 **** 0.06
1449 H 108.9922830766846 42.75306555293059 95.3012168860399 H 0.0 **** 0.06
1450 H 108.86733947561191 44.28818066560763 96.19411845619283 H 0.0 **** 0.06
1451 C 30.668781037745674 59.14615431852681 71.89286503930045 C 0.0 **** -0.24
1452 H 30.60100234408617 58.069400243698965 71.73943466364958 H 0.0 **** 0.06
1453 H 31.708522613612544 59.423812663435726 72.06687220360041 H 0.0 **** 0.06
1454 H 30.068136335830076 59.42862562139359 72.75776451580433 H 0.0 **** 0.06
1455 H 30.29754471575353 59.66293993038268 71.00837231195035 H 0.0 **** 0.06
1456 C 24.18575815138655 159.80300722495227 67.42613248133672 C 0.0 **** -0.24
1457 H 23.935325650247734 158.86564037184354 67.9227421138051 H 0.0 **** 0.06
1458 H 23.97602822767405 160.6371261647973 68.09573321193207 H 0.0 **** 0.06
1459 H 23.587458920984886 159.90509955466592 66.52061308394529 H 0.0 **** 0.06
1460 H 25.244474091740187 159.80366675349018 67.16461127687704 H 0.0 **** 0.06
1461 C 84.01823869958076 139.44056384493118 121.23497317356203 C 0.0 **** -0.24
1462 H 83.26217244583161 140.21173136615704 121.08606155361485 H 0.0 **** 0.06
1463 H 84.91165862882634 139.8878512137491 121.67062673263459 H 0.0 **** 0.06
1464 H 84.2680253352164 138.98700428052314 120.27562831743424 H 0.0 **** 0.06
1465 H 83.62890198126411 138.6760728620468 121.90746454649863 H 0.0 **** 0.06
1466 C 86.92209882657893 122.86468919443553 48.965692172980326 C 0.0 **** -0.24
1467 H 86.14281221740185 122.84074951410156 49.72747065737654 H 0.0 **** 0.06
1468 H 87.85704085360713 122.49844073847564 49.390563539716965 H 0.0 **** 0.06
1469 H 87.05687421515026 123.88930108529553 48.61724377035905 H 0.0 **** 0.06
1470 H 86.6303477053573 122.23167641368377 48.12800650877688 H 0.0 **** 0.06
1471 C 66.15719813549833 82.18485125865767 130.4693531439279 C 0.0 **** -0.24
1472 H 66.41057242727473 82.68969644067404 129.5370339922361 H 0.0 **** 0.06
1473 H 65.22079276653551 81.64166526495816 130.34569182828722 H 0.0 **** 0.06
1474 H 66.04770150327548 82.92284081926752 131.26432867499466 H 0.0 **** 0.06
1475 H 66.95216677735635 81.48528459727133 130.73017025578525 H 0.0 **** 0.06
1476 C 37.993638129761166 157.17681087149012 153.18444229325127 C 0.0 **** -0.24
1477 H 37.12788874352293 157.63742820116033 153.6597104764757 H 0.0 **** 0.06
1478 H 37.677683799001045 156.65564316032902 152.28043384268042 H 0.0 **** 0.06
1479 H 38.4511457449492 156.46574220274456 153.87349625396283 H 0.0 **** 0.06
1480 H 38.7191633303388 157.94843418920405 152.92461185356643 H 0.0 **** 0.06
1481 C 117.44281661074098 71.62368773855448 20.411761063412342 C 0.0 **** -0.24
1482 H 116.8142361974584 71.56133745262912 19.523268913899244 H 0.0 **** 0.06
1483 H 117.85195693690551 70.63926073471593 20.63635140153201 H 0.0 **** 0.06
1484 H 116.84636980509862 71.97132598921374 21.25578598260836 H 0.0 **** 0.06
1485 H 118.2583453814321 72.32385858226522 20.230739521582336 H 0.0 **** 0.06
1486 C 157.2803669178228 0.41850201007150645 69.90062872833354 C 0.0 **** -0.24
1487 H 158.36816047243119 0.335057549714179 69.90415720598484 H 0.0 **** 0.06
1488 H 156.8741075273789 -0.098048967606303 70.76983501011419 H 0.0 **** 0.06
1489 H 156.8849885399874 -0.03325406990711599 68.9910180648685 H 0.0 **** 0.06
1490 H 156.9976645040964 1.4705200954846873 69.9374455166319 H 0.0 **** 0.06
1491 C 35.613991656691155 117.69532325604217 166.2587347070966 C 0.0 **** -0.24
1492 H 34.943482155920606 116.84217324768011 166.16072333864236 H 0.0 **** 0.06
1493 H 35.299198541080386 118.48401631108317 165.57497030320417 H 0.0 **** 0.06
1494 H 36.631328271854045 117.38767574079634 166.01712676055104 H 0.0 **** 0.06
1495 H 35.580581165539456 118.06734584563861 167.28243246492377 H 0.0 **** 0.06
1496 C 5.041998253149494 130.09464675589385 23.96869097482019 C 0.0 **** -0.24
1497 H 3.9726229133442246 130.03013003631855 23.766196090776113 H 0.0 **** 0.06
1498 H 5.4567395845281155 129.08918573726595 24.05235700753606 H 0.0 **** 0.06
1499 H 5.202947133909483 130.63329143439478 24.901913092446406 H 0.0 **** 0.06
1500 H 5.534585314949119 130.62415507366921 23.153087445805816 H 0.0 **** 0.06
1501 C 117.19736215678591 101.42713494114798 22.31372281699953 C 0.0 **** -0.24
1502 H 117.7027601745047 100.80919533315802 23.055993437113386 H 0.0 **** 0.06
1503 H 116.2995281546738 101.86229859018397 22.753814759216198 H 0.0 **** 0.06
1504 H 116.92155206315724 100.8125277333589 21.45661315825265 H 0.0 **** 0.06
1505 H 117.86660011614998 102.22505759645327 21.989321488050393 H 0.0 **** 0.06
1506 C 139.8171270864929 165.9454143204248 112.08051782957531 C 0.0 **** -0.24
1507 H 139.06789919148127 166.67590595125168 112.38473601949039 H 0.0 **** 0.06
1508 H 140.05070713596342 166.0824675143463 111.02505634458049 H 0.0 **** 0.06
1509 H 139.42901338396297 164.9389043422311 112.23913568393093 H 0.0 **** 0.06
1510 H 140.72054225552586 166.08414299205626 112.67482380048642 H 0.0 **** 0.06
1511 C 21.006444597919142 58.47103806711421 163.8364705828987 C 0.0 **** -0.24
1512 H 20.378896513279415 58.89748544572551 163.05408691022964 H 0.0 **** 0.06
1513 H 20.476455734365658 57.64954960378495 164.3192911654605 H 0.0 **** 0.06
1514 H 21.239058862320945 59.238832547495974 164.57445935577815 H 0.0 **** 0.06
1515 H 21.931732583031135 58.09775203288291 163.396437748952 H 0.0 **** 0.06
1516 C 101.96164058803876 152.40885291592133 134.44712811688316 C 0.0 **** -0.24
1517 H 102.56940606560966 151.52887212458356 134.65465903068562 H 0.0 **** 0.06
1518 H 101.6821443014706 152.416702073981 133.39310324490924 H 0.0 **** 0.06
1519 H 102.53350053054626 153.3077897583544 134.6781171960136 H 0.0 **** 0.06
1520 H 101.06213301840407 152.38255995397674 135.0620402994791 H 0.0 **** 0.06
1521 C 84.485332362492 46.90895207781473 78.03494406985543 C 0.0 **** -0.24
1522 H 84.00430822733878 46.360427771800616 77.2259527140306 H 0.0 **** 0.06
1523 H 83.72324132229484 47.330749445267244 78.69103281498684 H 0.0 **** 0.06
1524 H 85.09181272256018 47.71294591289882 77.61884594400203 H 0.0 **** 0.06
1525 H 85.12178162709384 46.231337772269484 78.60530308979678 H 0.0 **** 0.06
1526 C 8.583728080730907 160.89303182371646 11.268393952285187 C 0.0 **** -0.24
1527 H 9.576501863604477 161.1943413880699 11.602603388039917 H 0.0 **** 0.06
1528 H 7.9128565785451315 161.75268698667585 11.301053871818134 H 0.0 **** 0.06
1529 H 8.202007943038467 160.10889654021722 11.922918056643653 H 0.0 **** 0.06
1530 H 8.64302374055805 160.51738369641348 10.246424422092957 H 0.0 **** 0.06
1531 C 4.808132881337805 25.778021781344016 154.61579574075736 C 0.0 **** -0.24
1532 H 4.930370983017426 24.75025506498612 154.27666072814938 H 0.0 **** 0.06
1533 H 5.188556828476216 25.872232043538858 155.63272455925724 H 0.0 **** 0.06
1534 H 3.7520529059909435 26.044722527995383 154.59700889198177 H 0.0 **** 0.06
1535 H 5.363415896920877 26.446109809573493 153.95684326416028 H 0.0 **** 0.06
1536 C 155.77288087549599 74.42040089141634 78.57903633222163 C 0.0 **** -0.24
1537 H 154.85756575245992 74.5967312088788 79.14403901385596 H 0.0 **** 0.06
1538 H 155.8019392888171 73.38177425574159 78.25042183067282 H 0.0 **** 0.06
1539 H 156.63588099985287 74.62621460012436 79.21270557039236 H 0.0 **** 0.06
1540 H 155.79450815444065 75.07801254664777 77.71001368737853 H 0.0 **** 0.06
1541 C 68.8509748658574 120.04054208121144 157.9889838008902 C 0.0 **** -0.24
1542 H 69.77252851984967 119.46173449591339 157.92513370989604 H 0.0 **** 0.06
1543 H 69.02030943929662 121.03857137277339 157.5829079911892 H 0.0 **** 0.06
1544 H 68.54351301733982 120.12087420308683 159.03132593716936 H 0.0 **** 0.06
1545 H 68.06909513429797 119.54225611654695 157.41659027868837 H 0.0 **** 0.06
1546 C 90.6004437306587 99.24153142912695 148.7150596772857 C 0.0 **** -0.24
1547 H 91.16273523204617 99.37739048917976 149.63830056545197 H 0.0 **** 0.06
1548 H 91.22490476546866 98.73371258527413 147.97986539714879 H 0.0 **** 0.06
1549 H 90.30030629919803 100.21458764198431 148.32579200127535 H 0.0 **** 0.06
1550 H 89.712668942642 98.64122694180583 148.91454060083692 H 0.0 **** 0.06
1551 C 13.829512086214322 153.57545892685027 38.38406277867591 C 0.0 **** -0.24
1552 H 14.007117121202668 153.38378785720786 39.442219588476604 H 0.0 **** 0.06
1553 H 13.284130020169073 152.73761027608685 37.9495432402351 H 0.0 **** 0.06
1554 H 14.78535221252099 153.69218847777753 37.87191622705427 H 0.0 **** 0.06
1555 H 13.244524320370545 154.4888089800248 38.27368074579334 H 0.0 **** 0.06
1556 C 23.64789649670945 169.35033879623634 25.051558511063007 C 0.0 **** -0.24
1557 H 23.668253568824696 168.4933594445223 24.379101720401934 H 0.0 **** 0.06
1558 H 23.610604265671952 170.26979049981912 24.466002294500377 H 0.0 **** 0.06
1559 H 24.546008265182763 169.3487824351714 25.668116680536308 H 0.0 **** 0.06
1560 H 22.767539766293112 169.29016098093214 25.69106834629514 H 0.0 **** 0.06
1561 C 91.88565813747243 103.53409004339119 138.8282174267011 C 0.0 **** -0.24
1562 H 92.42088494555782 102.69990061292549 138.37319162640352 H 0.0 **** 0.06
1563 H 92.1239880091394 103.58169850967556 139.89071565612653 H 0.0 **** 0.06
1564 H 90.81291329067056 103.38884616192826 138.70142275238982 H 0.0 **** 0.06
1565 H 92.1858079909872 104.46442596958428 138.34584897806207 H 0.0 **** 0.06
1566 C 164.94573639385965 80.98956952926713 78.4000497501382 C 0.0 **** -0.24
1567 H 164.2135753445823 81.7704362004144 78.60533155805436 H 0.0 **** 0.06
1568 H 164.43147290515844 80.09128302339434 78.05725881588708 H 0.0 **** 0.06
1569 H 165.5012205861417 80.7645986998755 79.31049119382796 H 0.0 **** 0.06
1570 H 165.6346717891994 81.33155436607461 77.62907081490572 H 0.0 **** 0.06
1571 C 109.20860387335625 9.750919586080443 84.22461961027759 C 0.0 **** -0.24
1572 H 109.38496238973781 9.19902871782682 83.30244973880416 H 0.0 **** 0.06
1573 H 109.78435795852587 10.676910858565634 84.20969943358327 H 0.0 **** 0.06
1574 H 109.5169048511274 9.145134267430649 85.0760635652974 H 0.0 **** 0.06
1575 H 108.14690058804098 9.985257598621388 84.31081157904353 H 0.0 **** 0.06
1576 C 100.27798991042337 136.8288271879575 93.05926221072139 C 0.0 **** -0.24
1577 H 100.50549906097208 136.3678998311059 92.0987442738683 H 0.0 **** 0.06
1578 H 99.8931933995585 136.07239259826935 93.74358856171489 H 0.0 **** 0.06
1579 H 99.5284695086558 137.608485097587 92.92031286709448 H 0.0 **** 0.06
1580 H 101.18533061828649 137.2678239653036 93.47461491089894 H 0.0 **** 0.06
1581 C 131.21587746906184 93.26655236187733 134.73222709155934 C 0.0 **** -0.24
1582 H 130.41910267376736 92.8509170134771 134.11603771715437 H 0.0 **** 0.06
1583 H 131.51176387814166 92.53671300100629 135.4855430372284 H 0.0 **** 0.06
1584 H 130.85933034300066 94.17264336840898 135.22380868868518 H 0.0 **** 0.06
1585 H 132.07207934665377 93.50804680477509 134.10367087396654 H 0.0 **** 0.06
1586 C 86.87828972966471 75.41021352963882 124.36869056123987 C 0.0 **** -0.24
1587 H 86.26071884172028 75.58749215230456 125.25008418345675 H 0.0 **** 0.06
1588 H 87.12443423001127 76.3636269691139 123.90109791065663 H 0.0 **** 0.06
1589 H 86.33194281920464 74.78657143905771 123.6619602396184 H 0.0 **** 0.06
1590 H 87.79673527964555 74.90383263228367 124.66610332551053 H 0.0 **** 0.06
1591 C 51.609802467814575 71.58514018304248 63.44145043558899 C 0.0 **** -0.24
1592 H 51.34999255947409 71.12198896555788 62.489710482463124 H 0.0 **** 0.06
1593 H 50.70166461822504 71.92284663967422 63.9406079008869 H 0.0 **** 0.06
1594 H 52.2656105618114 72.43704580419808 63.26370701812334 H 0.0 **** 0.06
1595 H 52.122600659045986 70.85746420076077 64.0714765472236 H 0.0 **** 0.06
1596 C 150.0617930572292 114.89613041863561 153.43343216070204 C 0.0 **** -0.24
1597 H 149.6479053815776 115.48512751898423 152.61535112848225 H 0.0 **** 0.06
1598 H 149.3492354299731 114.86748314826366 154.25831468055154 H 0.0 **** 0.06
1599 H 150.99285714373542 115.35169371222065 153.77304220690542 H 0.0 **** 0.06
1600 H 150.25913316716722 113.88124954120707 153.08733262637648 H 0.0 **** 0.06
1601 C 148.74534147218293 51.295223639730025 157.05930662456157 C 0.0 **** -0.24
1602 H 148.47583656018068 50.33807628940693 156.6125021422044 H 0.0 **** 0.06
1603 H 148.04623021885465 52.06147743954412 156.72507804857207 H 0.0 **** 0.06
1604 H 149.7559121042203 51.56616144876638 156.75495179268952 H 0.0 **** 0.06
1605 H 148.70350719365132 51.21305712349782 158.14591178411354 H 0.0 **** 0.06
1606 C 161.1310560632883 113.19687003119105 73.56947483108371 C 0.0 **** -0.24
1607 H 160.21538831287484 113.18257035746927 72.97911286634239 H 0.0 **** 0.06
1608 H 161.36821224573768 114.22515164693056 73.84588775075693 H 0.0 **** 0.06
1609 H 161.94890757029165 112.78073119578158 72.98150411950887 H 0.0 **** 0.06
1610 H 160.99128836284333 112.60096271876643 74.47113032878885 H 0.0 **** 0.06
1611 C 79.86665658208318 152.26679840691514 114.8772562584524 C 0.0 **** -0.24
1612 H 80.88023703017979 152.64812548381414 114.99653110654009 H 0.0 **** 0.06
1613 H 79.78189744023884 151.30061851893078 115.37488614412183 H 0.0 **** 0.06
1614 H 79.64582858436096 152.15078185385855 113.81557533847075 H 0.0 **** 0.06
1615 H 79.15969321060027 152.96827279812774 115.32077814976816 H 0.0 **** 0.06
1616 C 74.7814213082421 141.71553744876815 156.48209013821304 C 0.0 **** -0.24
1617 H 75.1864017081088 140.75636562771447 156.15837035457653 H 0.0 **** 0.06
1618 H 75.50201513256945 142.2125572352166 157.13150376218104 H 0.0 **** 0.06
1619 H 73.85219328813173 141.55200776647453 157.02787078474583 H 0.0 **** 0.06
1620 H 74.58582241719097 142.33954897005066 155.60980813567537 H 0.0 **** 0.06
1621 C 55.638894478717745 16.488035488937925 157.53443889138396 C 0.0 **** -0.24
1622 H 56.43524223305114 17.05451011190535 158.01665349767785 H 0.0 **** 0.06
1623 H 54.94776507072319 17.174765438821446 157.04609445127886 H 0.0 **** 0.06
1624 H 55.10325379201177 15.904964605990834 158.28417992009338 H 0.0 **** 0.06
1625 H 56.07020416618717 15.816490506036928 156.79193267563653 H 0.0 **** 0.06
1626 C 168.93731949166323 39.08109289153323 62.56912405794422 C 0.0 **** -0.24
1627 H 168.87772044577417 38.02091759068219 62.81325607732592 H 0.0 **** 0.06
1628 H 169.97955463171672 39.36021738950528 62.41714514816688 H 0.0 **** 0.06
1629 H 168.52023128251034 39.66576252009075 63.389308212533194 H 0.0 **** 0.06
1630 H 168.371440790126 39.276519680445844 61.65819384482083 H 0.0 **** 0.06
1631 C 36.66954237221401 47.01016350093778 7.72295166552572 C 0.0 **** -0.24
1632 H 36.75389695451216 47.93933052898973 8.287691569938737 H 0.0 **** 0.06
1633 H 37.56742274700946 46.867856924053626 7.122289671117848 H 0.0 **** 0.06
1634 H 35.79780253240716 47.05952942158365 7.071010853176375 H 0.0 **** 0.06
1635 H 36.55838685684961 46.17445729570494 8.415091696791706 H 0.0 **** 0.06
1636 C 130.1238542416359 40.476144103546176 105.37187255304937 C 0.0 **** -0.24
1637 H 130.38626244518565 41.22575661768434 104.62656848974555 H 0.0 **** 0.06
1638 H 129.05040220711783 40.50970878332356 105.55869689089454 H 0.0 **** 0.06
1639 H 130.66170573200208 40.68029315634794 106.29723631936767 H 0.0 **** 0.06
1640 H 130.39752385647222 39.48677826113453 105.00284083667987 H 0.0 **** 0.06
1641 C 87.0311693726082 109.07908707417079 17.333641592913423 C 0.0 **** -0.24
1642 H 87.32903421942794 109.61865257225966 16.433870050371453 H 0.0 **** 0.06
1643 H 85.94303916171354 109.02806035868437 17.38290750565784 H 0.0 **** 0.06
1644 H 87.41124981645974 109.60031555779 18.212068539172684 H 0.0 **** 0.06
1645 H 87.44142900825791 108.069328682617 17.303989836437907 H 0.0 **** 0.06
1646 C 69.17314227667066 137.47493893075793 86.0644916719801 C 0.0 **** -0.24
1647 H 70.09234701462452 137.54911337243877 86.64388785086327 H 0.0 **** 0.06
1648 H 69.3983277270637 137.61324364029795 85.00662611908724 H 0.0 **** 0.06
1649 H 68.47376771935399 138.24511212934618 86.39095251061279 H 0.0 **** 0.06
1650 H 68.72717696657224 136.4913095998845 86.21612116444149 H 0.0 **** 0.06
1651 C 101.29629918730876 40.01326544777274 20.985717314840315 C 0.0 **** -0.24
1652 H 102.17572637603351 40.10755383535141 20.347708114880042 H 0.0 **** 0.06
1653 H 100.45442995199608 39.65454663377406 20.393157443906283 H 0.0 **** 0.06
1654 H 101.05143462248225 40.98677982204498 21.412423700420185 H 0.0 **** 0.06
1655 H 101.50455032158462 39.30680935429314 21.78848341028283 H 0.0 **** 0.06
1656 C 164.25631658287682 158.18397690935456 101.44579633763988 C 0.0 **** -0.24
1657 H 164.09934500208692 157.1347060750828 101.19243913608153 H 0.0 **** 0.06
1658 H 164.77281088473327 158.25246352486886 102.40344471626591 H 0.0 **** 0.06
1659 H 163.2931650612755 158.68872534188154 101.51560557089087 H 0.0 **** 0.06
1660 H 164.8599856289136 158.6579735399401 100.67261264113398 H 0.0 **** 0.06
1661 C 7.065953670271597 158.22510270879098 68.1215376247298 C 0.0 **** -0.24
1662 H 5.977558523490984 158.25359882949948 68.06716696976235 H 0.0 **** 0.06
1663 H 7.480055042348283 159.0536859121455 67.54781897582178 H 0.0 **** 0.06
1664 H 7.42489130206701 157.2819375858454 67.7099279741547 H 0.0 **** 0.06
1665 H 7.379109021674083 158.30940119378755 69.16221753647059 H 0.0 **** 0.06
1666 C 163.73784632594948 115.58697081297558 26.21519702937897 C 0.0 **** -0.24
1667 H 162.70966263012014 115.94404725213815 26.283262605427126 H 0.0 **** 0.06
1668 H 163.8315654294709 114.64553363945083 26.75688695404733 H 0.0 **** 0.06
1669 H 164.408856312308 116.3271900682335 26.652122955325467 H 0.0 **** 0.06
1670 H 163.9994960905252 115.43241907145321 25.1687027255237 H 0.0 **** 0.06
1671 C 45.85867372030171 92.80140964184656 144.73514899196203 C 0.0 **** -0.24
1672 H 45.74331721153885 93.41919985192936 143.8439529709059 H 0.0 **** 0.06
1673 H 46.79061535361977 93.05980271739216 145.2383954602202 H 0.0 **** 0.06
1674 H 45.879544337197956 91.75036466514086 144.44844350236343 H 0.0 **** 0.06
1675 H 45.02049239042174 92.97782771434058 145.4095775788138 H 0.0 **** 0.06
1676 C 54.89345429521589 113.68294436176654 114.23846427819487 C 0.0 **** -0.24
1677 H 54.03180717667448 113.16654100515208 113.81394804119768 H 0.0 **** 0.06
1678 H 55.810376204989524 113.20837344882821 113.88771669131765 H 0.0 **** 0.06
1679 H 54.84934783336939 113.6288884722141 115.32602197927812 H 0.0 **** 0.06
1680 H 54.88156432082707 114.7264018712346 113.92609239198552 H 0.0 **** 0.06
1681 C 81.31431534302978 74.81354357855479 72.46209257814553 C 0.0 **** -0.24
1682 H 81.27453166995319 73.72780986111715 72.37104448310873 H 0.0 **** 0.06
1683 H 81.33434376371136 75.26033137631106 71.46747167329659 H 0.0 **** 0.06
1684 H 82.21311494041933 75.10009100112808 73.00784072030694 H 0.0 **** 0.06
1685 H 80.4337582129335 75.16447772043058 73.00012468801896 H 0.0 **** 0.06
1686 C 137.1282505204427 96.48631389091523 113.6463618025553 C 0.0 **** -0.24
1687 H 137.17244347894137 96.77224831891962 112.59507797177884 H 0.0 **** 0.06
1688 H 136.30543464923 97.01197595555615 114.1312387257679 H 0.0 **** 0.06
1689 H 138.06706874644237 96.75118773208155 114.13376656218594 H 0.0 **** 0.06
1690 H 136.96880902073534 95.41139083603176 113.72362100453466 H 0.0 **** 0.06
1691 C 147.62100853388188 10.463244465463845 94.72010954719343 C 0.0 **** -0.24
1692 H 147.86663582860933 10.676730045854477 93.68008439896408 H 0.0 **** 0.06
1693 H 146.80682030404833 9.740028548233454 94.7590509203506 H 0.0 **** 0.06
1694 H 147.31494924081747 11.383654682724902 95.21789257264743 H 0.0 **** 0.06
1695 H 148.49701558733364 10.052815513304367 95.22352779792263 H 0.0 **** 0.06
1696 C 25.326325993151748 131.12468951269304 157.70866189397617 C 0.0 **** -0.24
1697 H 25.39070169724574 130.78293043079208 158.7422061422496 H 0.0 **** 0.06
1698 H 26.073358203316552 130.60636767331965 157.10802097333107 H 0.0 **** 0.06
1699 H 25.507571442416236 132.1988136232441 157.66897979373147 H 0.0 **** 0.06
1700 H 24.331946191133085 130.9091679999536 157.3163539778502 H 0.0 **** 0.06
1701 C 109.98626400013967 68.0328256340385 113.72058381364894 C 0.0 **** -0.24
1702 H 109.32684757930087 67.31419286560092 114.20565089127865 H 0.0 **** 0.06
1703 H 109.5847552311352 69.03857675175759 113.84790469353902 H 0.0 **** 0.06
1704 H 110.0576943017171 67.80065661050125 112.65755349061891 H 0.0 **** 0.06
1705 H 110.97739878772282 67.97733460421708 114.1710943811425 H 0.0 **** 0.06
1706 C 99.78446301264174 170.74657626635806 36.65276800309448 C 0.0 **** -0.24
1707 H 99.60998030177032 171.77911436834106 36.348329061808116 H 0.0 **** 0.06
1708 H 98.88705777136397 170.35175405757758 37.12842588830844 H 0.0 **** 0.06
1709 H 100.61484882360696 170.71105726381046 37.357038515057596 H 0.0 **** 0.06
1710 H 100.02562856116859 170.14614388208832 35.77594687071931 H 0.0 **** 0.06
1711 C 75.20789547961118 105.02011552615355 100.27718343384606 C 0.0 **** -0.24
1712 H 74.65447521632879 104.72749936317993 101.169927518327 H 0.0 **** 0.06
1713 H 76.03027802871486 104.32261954139068 100.11559908401023 H 0.0 **** 0.06
1714 H 75.60582794879721 106.02667686029605 100.41000754718058 H 0.0 **** 0.06
1715 H 74.54182093904919 105.00259326925405 99.4149816935059 H 0.0 **** 0.06
1716 C 128.47712501052936 163.9778854967014 134.9521947084147 C 0.0 **** -0.24
1717 H 129.43962149459966 164.2685778987031 135.3733379561084 H 0.0 **** 0.06
1718 H 127.69854606841321 164.098678488375 135.70629158971246 H 0.0 **** 0.06
1719 H 128.51936917554332 162.9354284196404 134.63701087197018 H 0.0 **** 0.06
1720 H 128.2509633035612 164.60885718008691 134.0921384158675 H 0.0 **** 0.06
1721 C 144.78639206158925 46.779556859586364 155.10548437693404 C 0.0 **** -0.24
1722 H 144.94406665160054 47.85880800789545 155.1079155879615 H 0.0 **** 0.06
1723 H 143.781500928761 46.56072952078 154.74204712130643 H 0.0 **** 0.06
1724 H 144.89890329606257 46.393783605813496 156.11855959398036 H 0.0 **** 0.06
1725 H 145.51982051352573 46.307527674584435 154.4527092975473 H 0.0 **** 0.06
1726 C 63.814037852575936 163.34057855700758 151.39076335026013 C 0.0 **** -0.24
1727 H 64.17772350154304 164.34759706806057 151.18444884528577 H 0.0 **** 0.06
1728 H 63.50776485044851 162.8678472494264 150.45688210481092 H 0.0 **** 0.06
1729 H 62.962210251729545 163.39420192533078 152.0682450401082 H 0.0 **** 0.06
1730 H 64.60918761512946 162.75499243062808 151.85082083916782 H 0.0 **** 0.06
1731 C 94.4422581257507 83.96091439940652 62.39708691328191 C 0.0 **** -0.24
1732 H 94.42066839088557 83.63205374252951 63.43585913299863 H 0.0 **** 0.06
1733 H 94.34567362331822 83.09496060867119 61.740820426895866 H 0.0 **** 0.06
1734 H 95.38736473823104 84.46566728419803 62.19613615015885 H 0.0 **** 0.06
1735 H 93.61661526066305 84.64799506485258 62.21673682885246 H 0.0 **** 0.06
1736 C 164.52609439792317 143.77640284728867 18.818971602544394 C 0.0 **** -0.24
1737 H 165.42006331856138 143.27592127868996 18.448016173689552 H 0.0 **** 0.06
1738 H 163.8564499239052 143.98926407575598 17.98525847403664 H 0.0 **** 0.06
1739 H 164.80922651130203 144.71059432104474 19.304535910388267 H 0.0 **** 0.06
1740 H 164.01979970913675 143.13163454090756 19.537443389514607 H 0.0 **** 0.06
1741 C 28.476396050428534 168.72664677377713 114.71751399644958 C 0.0 **** -0.24
1742 H 27.421656444728505 168.5916850818785 114.95437651852251 H 0.0 **** 0.06
1743 H 28.776485527541368 169.7460939938868 114.96254438528504 H 0.0 **** 0.06
1744 H 28.63581971023777 168.5455720135916 113.65486909159122 H 0.0 **** 0.06
1745 H 29.071844509827145 168.02269426523856 115.29907670940932 H 0.0 **** 0.06
1746 C 152.58488539929274 138.0018649957674 69.50594764852117 C 0.0 **** -0.24
1747 H 151.58982767452449 138.01150802079127 69.94891748434965 H 0.0 **** 0.06
1748 H 153.12081190729631 138.90587123477107 69.79689388166449 H 0.0 **** 0.06
1749 H 152.4983518278233 137.96357956911956 68.4198494186166 H 0.0 **** 0.06
1750 H 153.1319482174484 137.12652172993577 69.85791733589441 H 0.0 **** 0.06
1751 C 17.504523991821657 149.07054085397115 139.95059383787196 C 0.0 **** -0.24
1752 H 16.881692085034018 148.63837241151322 139.16769791590127 H 0.0 **** 0.06
1753 H 17.275144498827302 150.13152241064012 140.05315303798517 H 0.0 **** 0.06
1754 H 18.555699206072518 148.95034242780383 139.68591057314927 H 0.0 **** 0.06
1755 H 17.307065626354472 148.56165610274837 140.89432510380402 H 0.0 **** 0.06
1756 C 112.58370098016204 63.08970453890936 22.901903942050097 C 0.0 **** -0.24
1757 H 112.39141194709666 63.69794536069156 23.78597816242899 H 0.0 **** 0.06
1758 H 113.51067572568562 63.41715678917495 22.43037022014994 H 0.0 **** 0.06
1759 H 111.75854339803652 63.200251870373165 22.19821051275804 H 0.0 **** 0.06
1760 H 112.6745607523221 62.04386219508308 23.194978120341062 H 0.0 **** 0.06
1761 C 37.815471768522784 94.0064189021515 71.43530214489601 C 0.0 **** -0.24
1762 H 37.765817112078594 94.22055302377447 70.36842673769678 H 0.0 **** 0.06
1763 H 36.82503053071015 94.11912011301382 71.87593211314947 H 0.0 **** 0.06
1764 H 38.5069895464201 94.69992445834168 71.91300850908914 H 0.0 **** 0.06
1765 H 38.16534889894494 92.9844009062164 71.58454833587973 H 0.0 **** 0.06
1766 C 19.453243203202135 89.38258779634054 170.68376555551797 C 0.0 **** -0.24
1767 H 18.366807605761835 89.36249187347278 170.59774792529043 H 0.0 **** 0.06
1768 H 19.827689007126082 88.3655263518574 170.80163223717014 H 0.0 **** 0.06
1769 H 19.736895171770612 89.97786536272997 171.55194547765643 H 0.0 **** 0.06
1770 H 19.880778686970075 89.82549605745368 169.784283001401 H 0.0 **** 0.06
1771 C 157.79479700580356 89.20786948120116 13.70484670679545 C 0.0 **** -0.24
1772 H 156.86280161442343 89.74066394551255 13.897545634142745 H 0.0 **** 0.06
1773 H 158.46815023690877 89.33750909715172 14.55253072814832 H 0.0 **** 0.06
1774 H 158.26183643781414 89.60655078498206 12.804334869584558 H 0.0 **** 0.06
1775 H 157.58439416284278 88.14779520119657 13.565921086730825 H 0.0 **** 0.06
1776 C 72.23491832155827 60.74707688196003 67.58669867222437 C 0.0 **** -0.24
1777 H 71.4542482088113 60.406375533706324 68.26651110168518 H 0.0 **** 0.06
1778 H 71.78906659947927 61.0244486513477 66.6310170542973 H 0.0 **** 0.06
1779 H 72.95697722567834 59.945813480027454 67.43206664967744 H 0.0 **** 0.06
1780 H 72.73888978142747 61.612983308523695 68.0170172018149 H 0.0 **** 0.06
1781 C 69.1717467637765 10.359551810896221 66.86744729775224 C 0.0 **** -0.24
1782 H 69.76309333026109 10.682380665161702 67.72428914649164 H 0.0 **** 0.06
1783 H 68.65071724514704 11.218402385602161 66.44099777466243 H 0.0 **** 0.06
1784 H 68.44278868478827 9.615963753539631 67.18881171769887 H 0.0 **** 0.06
1785 H 69.82952372117865 9.9235058076992 66.11595509758382 H 0.0 **** 0.06
1786 C 91.09302221918293 80.59307312670825 118.65284956764953 C 0.0 **** -0.24
1787 H 91.21901554613049 79.51733685658365 118.52285188988242 H 0.0 **** 0.06
1788 H 91.22418879726348 80.84934896467641 119.70375260108813 H 0.0 **** 0.06
1789 H 90.09284273183461 80.88205642914323 118.32995356295271 H 0.0 **** 0.06
1790 H 91.83542537695013 81.1203324793322 118.05371493159856 H 0.0 **** 0.06
1791 C 3.5535165072450283 44.17720503565323 113.22083327866818 C 0.0 **** -0.24
1792 H 2.7048045660452047 44.23219096646284 113.9035973758445 H 0.0 **** 0.06
1793 H 3.758831044910629 43.133611670081734 112.98120851245494 H 0.0 **** 0.06
1794 H 4.4284280338525335 44.6214721179897 113.69470324548621 H 0.0 **** 0.06
1795 H 3.3191169964106066 44.721580696324764 112.30620593005574 H 0.0 **** 0.06
1796 C 92.94797331474038 70.52051435239858 146.85217259709228 C 0.0 **** -0.24
1797 H 93.7798877064892 71.17615625663787 146.59610364752592 H 0.0 **** 0.06
1798 H 93.18444607997142 69.97275506636564 147.7645253730082 H 0.0 **** 0.06
1799 H 92.77843631985164 69.81504001278134 146.03777564685004 H 0.0 **** 0.06
1800 H 92.04988389602926 71.11670972196504 147.00907263287445 H 0.0 **** 0.06
1801 C 126.22637726473675 97.49556538961048 8.782484786838182 C 0.0 **** -0.24
1802 H 126.76939704678404 98.31054916866117 9.260410642888587 H 0.0 **** 0.06
1803 H 126.29444725037408 97.60081558633959 7.6989723950918005 H 0.0 **** 0.06
1804 H 125.1801411938221 97.53000244834129 9.085153480984843 H 0.0 **** 0.06
1805 H 126.6610034298902 96.54241203755646 9.083844990431999 H 0.0 **** 0.06
1806 C 85.68521701163839 146.18232057695465 152.19700660455186 C 0.0 **** -0.24
1807 H 86.10818606732172 146.40746701290695 151.21830111905848 H 0.0 **** 0.06
1808 H 85.66306721013112 147.0910988148146 152.8000884736488 H 0.0 **** 0.06
1809 H 86.29857992608906 145.43115952558546 152.6947808494021 H 0.0 **** 0.06
1810 H 84.67181040171673 145.80186444347893 152.07512831954116 H 0.0 **** 0.06
1811 C 85.47415033828298 19.309634067264405 58.083486420598504 C 0.0 **** -0.24
1812 H 86.38166977529936 18.771785752134356 57.806519116162164 H 0.0 **** 0.06
1813 H 84.65221440415527 18.60114160924897 58.191786811787836 H 0.0 **** 0.06
1814 H 85.23007778533459 20.0344858485834 57.306637220642216 H 0.0 **** 0.06
1815 H 85.6341779799276 19.828670357578318 59.028216885908336 H 0.0 **** 0.06
1816 C 31.081770895254124 33.50437456640343 85.6753506802259 C 0.0 **** -0.24
1817 H 31.811104864881486 32.72544070235783 85.89478665115037 H 0.0 **** 0.06
1818 H 30.077839368463003 33.079973021126435 85.70419549156645 H 0.0 **** 0.06
1819 H 31.27488254314028 33.91500327662055 84.68443588523652 H 0.0 **** 0.06
1820 H 31.16254425901616 34.29720703636153 86.41919981288017 H 0.0 **** 0.06
1821 C 8.766287042179414 51.37675627216899 23.963979218447605 C 0.0 **** -0.24
1822 H 9.416764694218813 51.47832799929904 24.833170921490904 H 0.0 **** 0.06
1823 H 7.724691819585033 51.404944646910224 24.284428904383162 H 0.0 **** 0.06
1824 H 8.969394049752474 50.42661848857121 23.468984322819438 H 0.0 **** 0.06
1825 H 8.9563221933686 52.195480665090514 23.271112600945656 H 0.0 **** 0.06
1826 C 136.7289338698008 20.795562871999806 130.0873415120749 C 0.0 **** -0.24
1827 H 135.92031910779826 20.462879594527493 129.43520944237167 H 0.0 **** 0.06
1828 H 137.15501641102 21.718450326351785 129.69503477787146 H 0.0 **** 0.06
1829 H 137.5004228129233 20.02657895203322 130.12859354404782 H 0.0 **** 0.06
1830 H 136.33757429739345 20.971600683184533 131.08968655243666 H 0.0 **** 0.06
1831 C 24.673699156441806 119.90005907058372 85.70307647005438 C 0.0 **** -0.24
1832 H 25.643510685752503 120.39474162310293 85.72771164841436 H 0.0 **** 0.06
1833 H 24.68202561876158 119.0506146830848 86.38771444043351 H 0.0 **** 0.06
1834 H 24.470276420153844 119.54891528981915 84.69189478776514 H 0.0 **** 0.06
1835 H 23.898551042846584 120.60314977266424 86.00592794908852 H 0.0 **** 0.06
1836 C 29.413824813034694 12.896210447508594 88.12727834842866 C 0.0 **** -0.24
1837 H 30.123269852470344 13.577375265671066 88.59613374637443 H 0.0 **** 0.06
1838 H 28.714878147140155 13.465163268440158 87.51350603357118 H 0.0 **** 0.06
1839 H 28.864178162847793 12.35629848670765 88.89923291925481 H 0.0 **** 0.06
1840 H 29.953026199748876 12.185221835065875 87.50086055044092 H 0.0 **** 0.06
1841 C 41.04251257855287 52.15569787348696 91.4270038625341 C 0.0 **** -0.24
1842 H 41.828657232230626 52.90929727123495 91.37843719103216 H 0.0 **** 0.06
1843 H 41.44044991509213 51.193516588135694 91.10573728387288 H 0.0 **** 0.06
1844 H 40.21938736211774 52.44600569792486 90.77308607946094 H 0.0 **** 0.06
1845 H 40.67962388486012 52.07583299438933 92.45270539745195 H 0.0 **** 0.06
1846 C 98.96801445477291 22.314703556565632 137.98826151138536 C 0.0 **** -0.24
1847 H 98.96668501735235 21.609449091775275 138.81990180796194 H 0.0 **** 0.06
1848 H 97.94038150145502 22.53726536950765 137.70137489419778 H 0.0 **** 0.06
1849 H 99.49555587212194 21.875833552215227 137.14117924434572 H 0.0 **** 0.06
1850 H 99.46916890825833 23.23327783324561 138.2923218294353 H 0.0 **** 0.06
1851 C 128.6839446730794 62.68094873768813 40.19024479966407 C 0.0 **** -0.24
1852 H 128.5952016651603 63.16674171461173 39.21798142133132 H 0.0 **** 0.06
1853 H 127.97558209344368 61.855616470081856 40.24875326540841 H 0.0 **** 0.06
1854 H 128.46857799712166 63.40302993568072 40.9775688188206 H 0.0 **** 0.06
1855 H 129.69808343695865 62.299954500069944 40.31426160894176 H 0.0 **** 0.06
1856 C 105.35969783629659 149.85617422236174 3.3151914374183775 C 0.0 **** -0.24
1857 H 106.42207864695146 150.0882550819161 3.3879215169406507 H 0.0 **** 0.06
1858 H 105.02077432120171 149.40842668553194 4.249377274249923 H 0.0 **** 0.06
1859 H 105.1956168172286 149.1557096401251 2.4956250852386574 H 0.0 **** 0.06
1860 H 104.80011695314394 150.77246272395755 3.1264513816387307 H 0.0 **** 0.06
1861 C 117.88664723749909 102.92956745830105 29.13161566591016 C 0.0 **** -0.24
1862 H 118.72454044562554 102.37528725641965 28.70801841377373 H 0.0 **** 0.06
1863 H 117.01405733267202 102.2795645664028 29.1898587889212 H 0.0 **** 0.06
1864 H 117.66075882487644 103.7862735044491 28.497521563232596 H 0.0 **** 0.06
1865 H 118.15008346782622 103.27584023204375 30.131476520982986 H 0.0 **** 0.06
1866 C 169.9487220103612 5.837109992302864 124.28141257377058 C 0.0 **** -0.24
1867 H 170.7961691314134 5.552825946215428 123.65709521742161 H 0.0 **** 0.06
1868 H 169.82923045973166 6.919855171446493 124.26075339246844 H 0.0 **** 0.06
1869 H 170.1268547522293 5.509143489782673 125.30495732216664 H 0.0 **** 0.06
1870 H 169.04378691422957 5.363383280467723 123.90055870823772 H 0.0 **** 0.06
1871 C 85.36484312559524 101.38787317135996 28.259542828943566 C 0.0 **** -0.24
1872 H 86.07426219833282 100.65036473158699 28.634413546519937 H 0.0 **** 0.06
1873 H 85.44435179357072 101.44962576464076 27.174235420024203 H 0.0 **** 0.06
1874 H 85.58725972585412 102.36075093649339 28.69770705699858 H 0.0 **** 0.06
1875 H 84.352493838029 101.08945299723268 28.533633198342258 H 0.0 **** 0.06
1876 C 36.45236767015825 69.13793366714448 56.35792537623797 C 0.0 **** -0.24
1877 H 35.85164914990855 70.04016569754124 56.24478477280246 H 0.0 **** 0.06
1878 H 36.34239816201591 68.51426435759734 55.469865395465945 H 0.0 **** 0.06
1879 H 36.11619932251563 68.58515822786144 57.234453360043744 H 0.0 **** 0.06
1880 H 37.50039702813524 69.41263454668123 56.48142073584211 H 0.0 **** 0.06
1881 C 82.47053535612838 66.59111768154725 122.39105644157357 C 0.0 **** -0.24
1882 H 81.38230322201025 66.5422882826431 122.42610912166845 H 0.0 **** 0.06
1883 H 82.88858220310306 65.86109861772333 123.08405873648837 H 0.0 **** 0.06
1884 H 82.79866356698756 67.59098240397755 122.67332859819152 H 0.0 **** 0.06
1885 H 82.81146087705224 66.37022205180203 121.3788044279915 H 0.0 **** 0.06
1886 C 80.17901750171231 9.425630827168106 164.63184147074054 C 0.0 **** -0.24
1887 H 80.2682493437112 10.434277899343584 164.227352941066 H 0.0 **** 0.06
1888 H 81.07743675669464 8.857081597896155 164.39097468158175 H 0.0 **** 0.06
1889 H 79.30902909912108 8.935487839407472 164.19482062906857 H 0.0 **** 0.06
1890 H 80.06105325914142 9.477888996532897 165.71410932204802 H 0.0 **** 0.06
1891 C 87.00403723761406 7.382309021432988 138.89265233019216 C 0.0 **** -0.24
1892 H 87.0450175757698 7.041042977401304 137.8585864399187 H 0.0 **** 0.06
1893 H 87.97091364294289 7.80122259131101 139.1747155730405 H 0.0 **** 0.06
1894 H 86.76812636706035 6.541368760925927 139.54392776614398 H 0.0 **** 0.06
1895 H 86.23344501651388 8.147183072348668 138.99208832781198 H 0.0 **** 0.06
1896 C 9.503679763418376 125.19742346120898 115.68565575425004 C 0.0 **** -0.24
1897 H 9.425631403852776 125.79804545735573 114.78005549798556 H 0.0 **** 0.06
1898 H 10.55214714899489 125.09950878938918 115.96780474674367 H 0.0 **** 0.06
1899 H 9.08407415944535 124.20842076763182 115.5020502294226 H 0.0 **** 0.06
1900 H 8.954015175539865 125.68163363823197 116.49213606991606 H 0.0 **** 0.06
1901 C 23.266811629432247 100.87058966564109 84.42547187298342 C 0.0 **** -0.24
1902 H 24.197872746748892 101.35599752297378 84.71742492149676 H 0.0 **** 0.06
1903 H 22.77419383583277 101.46405508234432 83.65477756632615 H 0.0 **** 0.06
1904 H 22.613043378954885 100.78631209926209 85.29345433023266 H 0.0 **** 0.06
1905 H 23.48308553637485 99.8755007872258 84.03530532255031 H 0.0 **** 0.06
1906 C 166.27923170295992 40.15984712912518 118.147652328681 C 0.0 **** -0.24
1907 H 166.35087932252202 39.19251834501415 118.64534484392698 H 0.0 **** 0.06
1908 H 165.58599321126914 40.79881204719095 118.69506663590082 H 0.0 **** 0.06
1909 H 165.9154509160539 40.01798884865286 117.1289678778644 H 0.0 **** 0.06
1910 H 167.26277784927515 40.629154118996325 118.12031884162622 H 0.0 **** 0.06
1911 C 75.52102778886008 136.8892046725225 58.476401512900225 C 0.0 **** -0.24
1912 H 74.68346319710929 136.3333026529513 58.053340377890265 H 0.0 **** 0.06
1913 H 75.54616248408183 136.74061340728534 59.555943577185246 H 0.0 **** 0.06
1914 H 75.40025958405984 137.94990814860898 58.2576908706574 H 0.0 **** 0.06
1915 H 76.45238967474138 136.53144018459005 58.03817009429204 H 0.0 **** 0.06
1916 C 37.420608978586046 112.5137016339271 16.29596407063582 C 0.0 **** -0.24
1917 H 38.04838267234567 112.75137076293689 15.43737642224525 H 0.0 **** 0.06
1918 H 38.01336143552635 112.58350181234425 17.20924973612688 H 0.0 **** 0.06
1919 H 37.03032355049518 111.50065147358845 16.192253525853573 H 0.0 **** 0.06
1920 H 36.590751107041854 113.21879410420024 16.345760776481143 H 0.0 **** 0.06
1921 C 145.9704700897694 94.21021339035616 161.1481818157427 C 0.0 **** -0.24
1922 H 146.02643892490227 93.14100352489919 161.3527177299687 H 0.0 **** 0.06
1923 H 144.93045099716088 94.49579551759362 160.98801833211627 H 0.0 **** 0.06
1924 H 146.5535171062278 94.44056774039791 160.25621923298064 H 0.0 **** 0.06
1925 H 146.37234618722655 94.76307663015771 161.99778940182122 H 0.0 **** 0.06
1926 C 129.9714104157806 148.68852308117238 100.62104156387068 C 0.0 **** -0.24
1927 H 130.80184161723938 149.11857626799122 100.05952085146473 H 0.0 **** 0.06
1928 H 129.03441524880378 149.1166361382438 100.26592266627091 H 0.0 **** 0.06
1929 H 130.09628844388342 148.91253340038887 101.6806943631363 H 0.0 **** 0.06
1930 H 129.9561745120251 147.60872216807147 100.47665662386245 H 0.0 **** 0.06
1931 C 42.06088916472311 30.96378191116554 107.48018020057316 C 0.0 **** -0.24
1932 H 41.70859066517613 31.937055377939657 107.8210198925081 H 0.0 **** 0.06
1933 H 42.68417697547176 30.512355059468376 108.25264917220193 H 0.0 **** 0.06
1934 H 42.64479952634008 31.087308280321167 106.5682404528248 H 0.0 **** 0.06
1935 H 41.20598949190463 30.31840892693276 107.27881128475786 H 0.0 **** 0.06
1936 C 64.07520118780542 145.8192603462902 97.41425798191494 C 0.0 **** -0.24
1937 H 63.950737992499285 145.73583139150298 98.4936623049228 H 0.0 **** 0.06
1938 H 63.353242809320705 145.17221067959736 96.91463707249451 H 0.0 **** 0.06
1939 H 65.08546798870782 145.51625777401546 97.14009452046108 H 0.0 **** 0.06
1940 H 63.90938259393084 146.85241655359084 97.10865589458214 H 0.0 **** 0.06
1941 C 141.46991011404123 56.40944541910511 90.27167478314473 C 0.0 **** -0.24
1942 H 140.43957793344813 56.10609657756447 90.08761705942027 H 0.0 **** 0.06
1943 H 141.91064122574824 56.78137025585718 89.34649036900396 H 0.0 **** 0.06
1944 H 142.04203284145575 55.5526836611582 90.62892831335694 H 0.0 **** 0.06
1945 H 141.48795286262464 57.196925753354094 91.02570886260693 H 0.0 **** 0.06
1946 C 20.198071483268563 53.50808436653871 158.53966124400657 C 0.0 **** -0.24
1947 H 20.206013778217937 52.86639411400115 159.4211876177195 H 0.0 **** 0.06
1948 H 19.40673991732004 54.25186039360172 158.6393346806545 H 0.0 **** 0.06
1949 H 20.017291395225612 52.9016497241426 157.65207757280425 H 0.0 **** 0.06
1950 H 21.160437782445342 54.009929614114284 158.4472621372186 H 0.0 **** 0.06
1951 C 64.18988543148157 114.9517647730193 93.99322142883773 C 0.0 **** -0.24
1952 H 63.726109398833046 114.54429699490385 94.8915242649366 H 0.0 **** 0.06
1953 H 64.10174135829851 116.03859668191274 94.00009418852312 H 0.0 **** 0.06
1954 H 63.690378318051216 114.551652538229 93.11192580460357 H 0.0 **** 0.06
1955 H 65.24362435495607 114.67356346188097 93.97093912636905 H 0.0 **** 0.06
1956 C 138.30947385546722 24.846124737307868 48.7831976447748 C 0.0 **** -0.24
1957 H 137.24163833850514 24.64453442815855 48.69531217458916 H 0.0 **** 0.06
1958 H 138.7921893183978 24.02442035143182 49.311373603516785 H 0.0 **** 0.06
1959 H 138.45868078392277 25.773129041777146 49.33814136965826 H 0.0 **** 0.06
1960 H 138.74397293205175 24.944810500444483 47.78847614870921 H 0.0 **** 0.06
1961 C 112.19997978193194 168.3357415866554 133.67135251686335 C 0.0 **** -0.24
1962 H 113.0808585952689 167.844802723842 134.0855671309149 H 0.0 **** 0.06
1963 H 111.61079692969895 168.76846779516455 134.48097084020944 H 0.0 **** 0.06
1964 H 111.59665757653738 167.60454395710497 133.1334486919619 H 0.0 **** 0.06
1965 H 112.51238211156058 169.1244230168199 132.98635427477183 H 0.0 **** 0.06
1966 C 35.80659543052542 4.880046940517474 116.10532187446691 C 0.0 **** -0.24
1967 H 35.94786651106992 5.447576101991615 117.02537694355038 H 0.0 **** 0.06
1968 H 36.76874410129608 4.738979550537266 115.61346000703483 H 0.0 **** 0.06
1969 H 35.134883252653026 5.42550400712031 115.44188947786759 H 0.0 **** 0.06
1970 H 35.37302647468161 3.9077600667375236 116.34119345934226 H 0.0 **** 0.06
1971 C 16.162444457055813 80.81262785828437 122.21208956389958 C 0.0 **** -0.24
1972 H 17.172550203969337 80.64743751140759 121.83736738412469 H 0.0 **** 0.06
1973 H 15.652758129053524 81.53455928889568 121.57461954886043 H 0.0 **** 0.06
1974 H 16.211880883871572 81.1966574620842 123.23115408436055 H 0.0 **** 0.06
1975 H 15.614760928028176 79.86978966842305 122.2052992484486 H 0.0 **** 0.06
1976 C 50.25980725253619 119.89872948278625 15.202607480375455 C 0.0 **** -0.24
1977 H 49.87789622534815 119.06074013892692 14.620119719503109 H 0.0 **** 0.06
1978 H 51.2803074897119 119.68539894443063 15.521073395811442 H 0.0 **** 0.06
1979 H 49.629288836308774 120.04786212188415 16.080333078870396 H 0.0 **** 0.06
1980 H 50.24973790272499 120.80064491717346 14.590886683993332 H 0.0 **** 0.06
1981 C 109.7407933975253 60.8634065269098 28.286087940401302 C 0.0 **** -0.24
1982 H 110.80071376946984 60.86577847389117 28.538946287466075 H 0.0 **** 0.06
1983 H 109.44274271230893 61.86172568884646 27.962143671168178 H 0.0 **** 0.06
1984 H 109.15912342632649 60.57663484206441 29.161261743617274 H 0.0 **** 0.06
1985 H 109.56135792902063 60.150877961380516 27.48042475663445 H 0.0 **** 0.06
1986 C 2.3774771954644507 51.08689417867666 104.23278306195945 C 0.0 **** -0.24
1987 H 3.4227225484300448 50.792057152234534 104.32266881957977 H 0.0 **** 0.06
1988 H 2.001897507668673 50.7992299808125 103.25063419265771 H 0.0 **** 0.06
1989 H 2.2945384373252864 52.16799664962424 104.35080355290322 H 0.0 **** 0.06
1990 H 1.7916780938525676 50.590960877086914 105.00687915705603 H 0.0 **** 0.06
1991 C 113.00542201499883 130.4908336310644 117.25045900928936 C 0.0 **** -0.24
1992 H 112.97295755830956 131.41181121167148 117.83177864124411 H 0.0 **** 0.06
1993 H 112.48468826794627 129.70034121204202 117.79271387599346 H 0.0 **** 0.06
1994 H 114.04331755034715 130.19895404543428 117.0902549214515 H 0.0 **** 0.06
1995 H 112.5196906366684 130.6516373655299 116.28785141499714 H 0.0 **** 0.06
1996 C 150.8788448819026 127.12772653705636 104.39731678240082 C 0.0 **** -0.24
1997 H 150.9875111266864 127.8776454264256 103.61407704960817 H 0.0 **** 0.06
1998 H 151.86582538352314 126.79706904164027 104.72173366261379 H 0.0 **** 0.06
1999 H 150.31910353475 126.27608926358315 104.01006650610088 H 0.0 **** 0.06
2000 H 150.3443660737347 127.5601372308289 105.24240822413964 H 0.0 **** 0.06
2001 C 37.04150237395393 93.62785402284729 37.61430038505284 C 0.0 **** -0.24
2002 H 36.20048931419444 94.14241722634031 37.15048155953127 H 0.0 **** 0.06
2003 H 37.943117892967834 93.80237363420454 37.02653209165709 H 0.0 **** 0.06
2004 H 36.83552735089803 92.55784165243747 37.65522748969701 H 0.0 **** 0.06
2005 H 37.187744111109396 94.00831691227066 38.62512407073558 H 0.0 **** 0.06
2006 C 157.25594725647403 162.42142466556805 171.15702234695593 C 0.0 **** -0.24
2007 H 158.30351004768647 162.22085704380632 171.38466032661498 H 0.0 **** 0.06
2008 H 156.65972683098647 161.53580915863034 171.37968935987493 H 0.0 **** 0.06
2009 H 157.1557103846764 162.67057445901858 170.10092333774477 H 0.0 **** 0.06
2010 H 156.9064311947709 163.25689529913615 171.76299471246463 H 0.0 **** 0.06
2011 C 38.46428686529714 92.65194733357635 59.736484349968805 C 0.0 **** -0.24
2012 H 37.48934584689039 92.87877839448356 59.306023153227954 H 0.0 **** 0.06
2013 H 39.147085583212174 93.47999613781982 59.545007756346365 H 0.0 **** 0.06
2014 H 38.858141196041686 91.74203588087846 59.28291063092979 H 0.0 **** 0.06
2015 H 38.36105003694098 92.50619094665808 60.8117631131982 H 0.0 **** 0.06
2016 C 24.6411407655712 120.0866881789797 163.74111630664052 C 0.0 **** -0.24
2017 H 24.70924783556137 119.51888334615467 162.81383142580913 H 0.0 **** 0.06
2018 H 23.60647718785912 120.10030241175056 164.0844778258154 H 0.0 **** 0.06
2019 H 24.97965142749276 121.10780906301272 163.56699898189058 H 0.0 **** 0.06
2020 H 25.269988923206967 119.61978943377378 164.49975308780157 H 0.0 **** 0.06
2021 C 87.31457535035145 125.1241145274733 69.49477395279041 C 0.0 **** -0.24
2022 H 87.20061192415841 124.25086098520927 68.85133567720851 H 0.0 **** 0.06
2023 H 87.50796152703089 126.00362661433053 68.88183723528698 H 0.0 **** 0.06
2024 H 88.14943075479891 124.96519652923575 70.17737831176106 H 0.0 **** 0.06
2025 H 86.39924828508407 125.27333292192958 70.06830114925162 H 0.0 **** 0.06
2026 C 59.94383575208413 70.13850182789622 119.76645586153623 C 0.0 **** -0.24
2027 H 59.65045514155848 70.33602568755146 120.79755204099516 H 0.0 **** 0.06
2028 H 60.96125335326711 69.74690283776783 119.74688899609018 H 0.0 **** 0.06
2029 H 59.89879777605542 71.06439219876512 119.19262504997849 H 0.0 **** 0.06
2030 H 59.26361541332746 69.4070297127551 119.32993664540322 H 0.0 **** 0.06
2031 C 3.6805750072676346 161.8561823809249 72.76657748421727 C 0.0 **** -0.24
2032 H 2.753164021682551 162.1253257608078 73.27261592535916 H 0.0 **** 0.06
2033 H 3.4847385192961156 161.71359175643317 71.70273810064228 H 0.0 **** 0.06
2034 H 4.071222812622409 160.93151441773475 73.19173938604835 H 0.0 **** 0.06
2035 H 4.410675194871828 162.65379884267048 72.89763408982783 H 0.0 **** 0.06
2036 C 76.0464272530026 152.13652119356806 75.54167262449303 C 0.0 **** -0.24
2037 H 76.65938830549533 152.06300864525355 74.64280285304164 H 0.0 **** 0.06
2038 H 75.01504580718753 151.87774314400045 75.29938259981557 H 0.0 **** 0.06
2039 H 76.08469759817189 153.1566214262996 75.92440894828803 H 0.0 **** 0.06
2040 H 76.42586102418633 151.45013302349315 76.29823422873551 H 0.0 **** 0.06
2041 C 135.82242685953392 5.942053411363531 0.48716065803839115 C 0.0 **** -0.24
2042 H 134.96522175794846 6.610902015287962 0.41133758479585936 H 0.0 **** 0.06
2043 H 135.4754802234479 4.9281700959847115 0.6891578568830141 H 0.0 **** 0.06
2044 H 136.47108288304204 6.272932286169521 1.298228914972725 H 0.0 **** 0.06
2045 H 136.37743121736702 5.956131565582837 -0.4509492280019458 H 0.0 **** 0.06
2046 C 160.7030570884143 54.46985938272853 161.4461134890446 C 0.0 **** -0.24
2047 H 160.05586323322717 53.920375715888255 160.76283683473827 H 0.0 **** 0.06
2048 H 160.54750660150228 55.54138063586295 161.31248529593725 H 0.0 **** 0.06
2049 H 161.7443248979212 54.224765308284574 161.23666557024296 H 0.0 **** 0.06
2050 H 160.46429357210374 54.19328023980209 162.47381149415145 H 0.0 **** 0.06
2051 C 138.4250546049043 95.75947982004192 162.93722317333726 C 0.0 **** -0.24
2052 H 137.68665405257832 95.05300610067076 162.55889834528656 H 0.0 **** 0.06
2053 H 139.38398642340312 95.25517007574302 163.05705905324066 H 0.0 **** 0.06
2054 H 138.09546102542467 96.14828517912912 163.90050747166 H 0.0 **** 0.06
2055 H 138.53357872821957 96.58375043437849 162.23175334695455 H 0.0 **** 0.06
2056 C 2.3485607900442673 48.02558771517501 95.62177612560856 C 0.0 **** -0.24
2057 H 2.781607917300981 48.608800194274934 94.80942425586068 H 0.0 **** 0.06
2058 H 1.2654518615592707 47.99399394311128 95.50874500594907 H 0.0 **** 0.06
2059 H 2.6021490537841743 48.487878549324975 96.57637048699414 H 0.0 **** 0.06
2060 H 2.746998722093352 47.01064356733596 95.59283099176244 H 0.0 **** 0.06
2061 C 16.536022784250193 3.39517572915463 22.27741724138417 C 0.0 **** -0.24
2062 H 17.444878196609935 3.5883782970146285 22.847030078215397 H 0.0 **** 0.06
2063 H 15.665566549512512 3.612912382339829 22.897335715530232 H 0.0 **** 0.06
2064 H 16.51295972604234 2.3476779469676785 21.973913160958034 H 0.0 **** 0.06
2065 H 16.520252545551173 4.029553920200499 21.391630149025502 H 0.0 **** 0.06
2066 C 10.269868185903533 141.16763922493186 57.46728104631646 C 0.0 **** -0.24
2067 H 10.35954170590125 142.24047093075612 57.295414853510295 H 0.0 **** 0.06
2068 H 11.263388981356172 140.72874294476816 57.54869738443108 H 0.0 **** 0.06
2069 H 9.73626728642327 140.70995461574418 56.63468928297743 H 0.0 **** 0.06
2070 H 9.718699638945537 140.99362079883747 58.39191504460547 H 0.0 **** 0.06
2071 C 137.8398506927415 0.4699606443830362 21.539942687923627 C 0.0 **** -0.24
2072 H 137.12936874196555 1.2665646871588478 21.319000198148615 H 0.0 **** 0.06
2073 H 138.24901596269297 0.6154742675414013 22.539932570584114 H 0.0 **** 0.06
2074 H 138.64839817581958 0.49140457823597217 20.808562254139986 H 0.0 **** 0.06
2075 H 137.3326764726005 -0.49381707400482355 21.49130098826822 H 0.0 **** 0.06
2076 C 28.299806735377928 1.4224393895636425 92.39566418020308 C 0.0 **** -0.24
2077 H 28.02662580357162 2.2756907372898283 93.01669920984153 H 0.0 **** 0.06
2078 H 29.364033535679937 1.2159880774352416 92.51008167692646 H 0.0 **** 0.06
2079 H 28.083533540703 1.6494297957950153 91.35172527112167 H 0.0 **** 0.06
2080 H 27.72484259777326 0.5497837887475754 92.70497247128617 H 0.0 **** 0.06
2081 C 39.71763133026954 143.06119404626773 82.69382458553258 C 0.0 **** -0.24
2082 H 40.039560143658775 142.45918109030956 81.8436155244003 H 0.0 **** 0.06
2083 H 39.94862820717768 144.10938001769176 82.50591562742426 H 0.0 **** 0.06
2084 H 40.23927891585976 142.7288507998147 83.59148540972274 H 0.0 **** 0.06
2085 H 38.64303759566087 142.94422335513426 82.83391508044541 H 0.0 **** 0.06
2086 C 20.453421132780853 164.8927096250301 20.18935620916909 C 0.0 **** -0.24
2087 H 20.40144574092784 164.99578993523164 21.272907857222492 H 0.0 **** 0.06
2088 H 20.112537661061594 163.8984803432907 19.901207344059372 H 0.0 **** 0.06
2089 H 21.48363824999948 165.03303666562599 19.86000497198728 H 0.0 **** 0.06
2090 H 19.817535644799058 165.64519596200634 19.72227467241578 H 0.0 **** 0.06
2091 C 84.64623079197293 116.02933977564848 37.73378203214959 C 0.0 **** -0.24
2092 H 85.39681528294352 115.38730383593298 37.27273327066945 H 0.0 **** 0.06
2093 H 84.38460886894387 115.63383561276402 38.71554709016425 H 0.0 **** 0.06
2094 H 83.75668722205563 116.05717297741225 37.103639378334364 H 0.0 **** 0.06
2095 H 85.04720745232294 117.03736110673825 37.84147562381652 H 0.0 **** 0.06
2096 C 45.60303031778743 0.766587562255836 119.31810739704747 C 0.0 **** -0.24
2097 H 46.158587340724964 0.24445427198065772 120.09698826177151 H 0.0 **** 0.06
2098 H 46.0202112960783 0.5141053901718919 118.34309920310864 H 0.0 **** 0.06
2099 H 45.67667069710025 1.8417054785491018 119.47810024691296 H 0.0 **** 0.06
2100 H 44.55595441190803 0.4641900984241829 119.35520236353813 H 0.0 **** 0.06
2101 C 58.95746239619159 62.609048334554785 68.45005387449838 C 0.0 **** -0.24
2102 H 58.457809782646166 61.87896494550631 69.08629021281781 H 0.0 **** 0.06
2103 H 60.023317820408394 62.620449281109 68.67837475363456 H 0.0 **** 0.06
2104 H 58.53562841858192 63.59832399988673 68.63206207210253 H 0.0 **** 0.06
2105 H 58.81188556174956 62.33872167659038 67.40417382919118 H 0.0 **** 0.06
2106 C 38.27818276069593 82.15537718732516 151.50132266234607 C 0.0 **** -0.24
2107 H 38.971145816949274 81.80072229203329 152.2633228274278 H 0.0 **** 0.06
2108 H 38.7542826763833 82.10090877912485 150.5221703475952 H 0.0 **** 0.06
2109 H 38.00285753419928 83.18885732837185 151.71341703792137 H 0.0 **** 0.06
2110 H 37.38318147430624 81.53365150846658 151.50568709699746 H 0.0 **** 0.06
2111 C 64.73796138803112 34.33383023252212 30.469618627600312 C 0.0 **** -0.24
2112 H 65.5805042131513 34.86107846672745 30.02206854741324 H 0.0 **** 0.06
2113 H 64.29395673053 34.955249269662275 31.247945330929767 H 0.0 **** 0.06
2114 H 65.08549046737812 33.39743595561376 30.90531056423076 H 0.0 **** 0.06
2115 H 63.9928886673853 34.12417751218112 29.70276887953348 H 0.0 **** 0.06
2116 C 59.73367284504201 72.89895261566008 4.2254378704585065 C 0.0 **** -0.24
2117 H 60.619240869013325 73.0844082606467 4.83344088770383 H 0.0 **** 0.06
2118 H 59.97368280874663 72.1734590355558 3.4474626150820313 H 0.0 **** 0.06
2119 H 59.40769550251049 73.83090757326615 3.764845988343154 H 0.0 **** 0.06
2120 H 58.93645444208734 72.50580797487461 4.855097502495823 H 0.0 **** 0.06
2121 C 4.300198847828618 105.8212023866246 53.44796813249309 C 0.0 **** -0.24
2122 H 3.419389119968031 106.21233261999691 52.93753832964637 H 0.0 **** 0.06
2123 H 4.5125131589217204 106.43255844526664 54.32505911319913 H 0.0 **** 0.06
2124 H 5.153373308389625 105.84721479660837 52.770399783429696 H 0.0 **** 0.06
2125 H 4.112888321001485 104.79337526976136 53.757600736382926 H 0.0 **** 0.06
2126 C 14.480590636992261 47.89455751802568 62.74917612995834 C 0.0 **** -0.24
2127 H 14.142558724846815 47.184411270700565 61.99448816828831 H 0.0 **** 0.06
2128 H 14.572651851949772 47.38747009201499 63.7100748152896 H 0.0 **** 0.06
2129 H 13.758449134228165 48.70641823103567 62.83475073386815 H 0.0 **** 0.06
2130 H 15.450280591710403 48.29991838481908 62.45810538439103 H 0.0 **** 0.06
2131 C 40.71249919583545 121.56092876134682 155.09671168212805 C 0.0 **** -0.24
2132 H 40.668364697815434 120.5664286491178 154.65233811464256 H 0.0 **** 0.06
2133 H 41.41428433881589 122.17821535029677 154.53586494282996 H 0.0 **** 0.06
2134 H 41.043973523244546 121.48176348435348 156.13203762719158 H 0.0 **** 0.06
2135 H 39.722124034887855 122.01684154161939 155.06613709849637 H 0.0 **** 0.06
2136 C 2.9422322060821173 128.9474786719564 112.48357038685975 C 0.0 **** -0.24
2137 H 3.0253407781231374 127.94998886083008 112.91617326838778 H 0.0 **** 0.06
2138 H 3.382906483718074 128.94913644874242 111.4861769626688 H 0.0 **** 0.06
2139 H 3.4678079003666227 129.66270227860292 113.11606351667353 H 0.0 **** 0.06
2140 H 1.8902895763979544 129.2270097581002 112.41627036599832 H 0.0 **** 0.06
2141 C 110.5739955137712 60.062836996248734 14.734515324179682 C 0.0 **** -0.24
2142 H 111.37619151040309 60.80033299528088 14.692166175274423 H 0.0 **** 0.06
2143 H 110.19849283305606 59.87793292968803 13.727937251685091 H 0.0 **** 0.06
2144 H 109.76525916933974 60.44146987138498 15.359893503849179 H 0.0 **** 0.06
2145 H 110.95658100235022 59.13422865488843 15.157136969064823 H 0.0 **** 0.06
2146 C 37.351557236764165 100.16698638596321 7.245550711071701 C 0.0 **** -0.24
2147 H 38.03395176786978 100.92624390880547 6.8629792616507075 H 0.0 **** 0.06
2148 H 37.344392753864554 100.20012547830447 8.334751628791821 H 0.0 **** 0.06
2149 H 37.681445811824005 99.18280703344814 6.913860046387924 H 0.0 **** 0.06
2150 H 36.34688248110547 100.3588364767999 6.868939027051738 H 0.0 **** 0.06
2151 C 113.78558833576892 24.764468836465298 80.27113425162483 C 0.0 **** -0.24
2152 H 114.60345051514406 24.201158396961432 79.82152664868407 H 0.0 **** 0.06
2153 H 113.11397843999174 24.07880088456581 80.78842895676998 H 0.0 **** 0.06
2154 H 113.23698248285689 25.29205015371962 79.49094725221259 H 0.0 **** 0.06
2155 H 114.19003174122582 25.484964326901135 80.98195487662134 H 0.0 **** 0.06
2156 C 20.946550609610114 52.336243377480386 98.75310803651394 C 0.0 **** -0.24
2157 H 20.688747735361943 53.387279650854 98.62620811098722 H 0.0 **** 0.06
2158 H 21.76394996253137 52.078654105623386 98.07939202969897 H 0.0 **** 0.06
2159 H 20.078133661488096 51.71987192993592 98.52358594631596 H 0.0 **** 0.06
2160 H 21.25537107905913 52.15916782350834 99.78324605905348 H 0.0 **** 0.06
2161 C 88.04117932378381 13.06654816491232 52.356841983500544 C 0.0 **** -0.24
2162 H 88.39421528564306 12.806005866399744 51.3591238362726 H 0.0 **** 0.06
2163 H 87.37186795894108 13.92499194510549 52.29211342851312 H 0.0 **** 0.06
2164 H 88.89247595637106 13.316378990319095 52.9889011149408 H 0.0 **** 0.06
2165 H 87.50516467020302 12.219960462272411 52.78530519540749 H 0.0 **** 0.06
2166 C 132.99620276481951 157.69899509216606 120.3589204383347 C 0.0 **** -0.24
2167 H 134.01399000494916 158.06353389437726 120.49438908193952 H 0.0 **** 0.06
2168 H 132.29006392216462 158.45856882913384 120.69417833109972 H 0.0 **** 0.06
2169 H 132.85536403556551 156.7889553723229 120.94317071063827 H 0.0 **** 0.06
2170 H 132.82446564741358 157.48265572757816 119.30399633849393 H 0.0 **** 0.06
2171 C 91.67611710726928 102.68456566525296 167.57862973813542 C 0.0 **** -0.24
2172 H 91.31037228349919 103.65220456437453 167.92160475078254 H 0.0 **** 0.06
2173 H 90.851906006567 101.97036574171099 167.561029716644 H 0.0 **** 0.06
2174 H 92.45119990456615 102.32809273404698 168.2577857724542 H 0.0 **** 0.06
2175 H 92.0904298510321 102.78715212701141 166.57531763658494 H 0.0 **** 0.06
2176 C 153.82062588116872 42.70794582464008 138.84254194849268 C 0.0 **** -0.24
2177 H 154.28344791698643 43.67133537493575 139.05746410669903 H 0.0 **** 0.06
2178 H 154.05832533563137 42.00444112990445 139.64020496457334 H 0.0 **** 0.06
2179 H 154.20155234631602 42.32657679300981 137.8952722570588 H 0.0 **** 0.06
2180 H 152.73938539035942 42.83167230465409 138.77626251592739 H 0.0 **** 0.06
2181 C 166.02662728471822 13.886255332498763 77.21686352222292 C 0.0 **** -0.24
2182 H 164.9611946604467 14.054295912415967 77.05722990102419 H 0.0 **** 0.06
2183 H 166.594127011351 14.37234866631377 76.42309433362875 H 0.0 **** 0.06
2184 H 166.23088604018258 12.815781926680046 77.20796282429133 H 0.0 **** 0.06
2185 H 166.31987764748564 14.303932025774543 78.18018309480235 H 0.0 **** 0.06
2186 C 108.52963095996788 5.567613382124009 54.449422173939496 C 0.0 **** -0.24
2187 H 107.66532923249272 5.888659414601165 55.03165595976181 H 0.0 **** 0.06
2188 H 108.71483256883312 4.508290138868794 54.62755082963619 H 0.0 **** 0.06
2189 H 109.40452262666699 6.14565374869499 54.75025625786415 H 0.0 **** 0.06
2190 H 108.3340945251129 5.729741808466358 53.38939054073228 H 0.0 **** 0.06
2191 C 57.37779382810071 99.00792608136601 81.34956559339543 C 0.0 **** -0.24
2192 H 57.56641162825211 98.00421634411182 80.96799870828698 H 0.0 **** 0.06
2193 H 57.658216818152354 99.74224516838265 80.59337470853376 H 0.0 **** 0.06
2194 H 57.969250948839914 99.17076795325693 82.25030260935398 H 0.0 **** 0.06
2195 H 56.31917229407617 99.11453799104802 81.5853717018797 H 0.0 **** 0.06
2196 C 134.6080898552883 157.14602602952766 34.883726287796165 C 0.0 **** -0.24
2197 H 135.62353516559395 157.02119457173268 34.50774475480357 H 0.0 **** 0.06
2198 H 134.56884054121352 158.01650905866398 35.54026344161892 H 0.0 **** 0.06
2199 H 134.31557396104122 156.2570301388227 35.44257773988598 H 0.0 **** 0.06
2200 H 133.92602026409108 157.290739056076 34.04644833371667 H 0.0 **** 0.06
2201 C 126.13978382846022 102.50678238233098 71.43529973759763 C 0.0 **** -0.24
2202 H 126.56129367409835 102.71960028971236 70.45339437283468 H 0.0 **** 0.06
2203 H 126.56978801085418 103.18839970780786 72.16971816830493 H 0.0 **** 0.06
2204 H 126.37070418395331 101.47901096037711 71.71521378782604 H 0.0 **** 0.06
2205 H 125.05883267063845 102.64058949610944 71.4047642976782 H 0.0 **** 0.06
2206 C 165.9641223684635 139.31771139770768 53.08813096059504 C 0.0 **** -0.24
2207 H 166.65486198758688 139.57232885760624 52.28449801974382 H 0.0 **** 0.06
2208 H 164.9384743952984 139.41560639680898 52.730446703666345 H 0.0 **** 0.06
2209 H 166.1214932233322 139.99263650752283 53.92950644037968 H 0.0 **** 0.06
2210 H 166.1411648476598 138.29152549040253 53.40850667692102 H 0.0 **** 0.06
2211 C 99.25555855281914 55.02376136721385 45.82579380096524 C 0.0 **** -0.24
2212 H 99.66238566273756 55.45217503712814 46.74124756120878 H 0.0 **** 0.06
2213 H 100.0381364824533 54.468801837526414 45.30611413448679 H 0.0 **** 0.06
2214 H 98.88886050330822 55.824022542172116 45.181598312920926 H 0.0 **** 0.06
2215 H 98.4343663947987 54.350618609412265 46.07267324788779 H 0.0 **** 0.06
2216 C 9.951094933346354 126.05459130016331 6.825623288191508 C 0.0 **** -0.24
2217 H 9.173845553625455 125.72940017786675 6.134639714593646 H 0.0 **** 0.06
2218 H 9.654072801558868 126.99653229936303 7.2881892074871075 H 0.0 **** 0.06
2219 H 10.885133094883713 126.19390337519448 6.281980001219864 H 0.0 **** 0.06
2220 H 10.089622625391286 125.29846964658913 7.597979611505934 H 0.0 **** 0.06
2221 C 141.6793073960906 149.13466374996705 63.740871843976336 C 0.0 **** -0.24
2222 H 141.99736406169276 148.18786818786117 63.305415438615256 H 0.0 **** 0.06
2223 H 142.54488056898487 149.65338072536414 64.15362598643577 H 0.0 **** 0.06
2224 H 140.95604929971424 148.94599845548598 64.53413492380041 H 0.0 **** 0.06
2225 H 141.21948905305726 149.75251821785403 62.96963249739191 H 0.0 **** 0.06
2226 C 13.135742491206969 55.974118108970174 12.15543558491089 C 0.0 **** -0.24
2227 H 12.819387182968832 57.016108337092135 12.19586886944819 H 0.0 **** 0.06
2228 H 13.035627499339128 55.60369772715791 11.134728505781112 H 0.0 **** 0.06
2229 H 12.512026955545885 55.3784698396737 12.821517590057312 H 0.0 **** 0.06
2230 H 14.176749402726763 55.89911757007383 12.468936303260932 H 0.0 **** 0.06
2231 C 14.953522497861634 128.24082746258028 128.16903388072362 C 0.0 **** -0.24
2232 H 15.46546026814734 128.90534734359238 128.86552311294173 H 0.0 **** 0.06
2233 H 13.881830972639385 128.43723090870157 128.20174699650818 H 0.0 **** 0.06
2234 H 15.14227358684765 127.20490681238135 128.4504883430456 H 0.0 **** 0.06
2235 H 15.32509137050171 128.41673954198507 127.16033736896938 H 0.0 **** 0.06
2236 C 170.85276018211675 83.55206365257914 89.50593015850075 C 0.0 **** -0.24
2237 H 171.61029881256712 82.87926899510262 89.10401878045218 H 0.0 **** 0.06
2238 H 170.56699947731198 84.2753086969347 88.74210975281153 H 0.0 **** 0.06
2239 H 171.2568568883363 84.07783114515246 90.37132578806808 H 0.0 **** 0.06
2240 H 169.97794582507186 82.9751668988209 89.80691051981643 H 0.0 **** 0.06
2241 C 17.1150768389179 0.74302576633972 67.07235670254765 C 0.0 **** -0.24
2242 H 17.900629748160554 1.4067978123523162 67.43251980896811 H 0.0 **** 0.06
2243 H 17.365367577323582 -0.28703919044841086 67.32544938482938 H 0.0 **** 0.06
2244 H 17.026102250394587 0.8402252881126699 65.9895330742565 H 0.0 **** 0.06
2245 H 16.168063093312412 1.0123688210134247 67.53949207415836 H 0.0 **** 0.06
2246 C 24.543001501405186 171.6898294872026 58.23249492323038 C 0.0 **** -0.24
2247 H 23.641956685918146 172.01470616905294 57.71182748734873 H 0.0 **** 0.06
2248 H 24.306956836339005 171.4976878705511 59.2797421411542 H 0.0 **** 0.06
2249 H 25.301541212819856 172.4687061853964 58.16745087020911 H 0.0 **** 0.06
2250 H 24.91932281793307 170.7762570977751 57.77052307966045 H 0.0 **** 0.06
2251 C 52.60219237072806 139.62801064523248 66.32157240804082 C 0.0 **** -0.24
2252 H 52.70044062771251 138.603374532376 65.96474294384197 H 0.0 **** 0.06
2253 H 51.68715552017528 140.06533428274219 65.92159891520063 H 0.0 **** 0.06
2254 H 53.46010697997809 140.21231518900885 65.99032494482319 H 0.0 **** 0.06
2255 H 52.55906959864825 139.6303626250451 67.41088094545015 H 0.0 **** 0.06
2256 C 42.14249201768615 42.60804421857257 103.03234757296326 C 0.0 **** -0.24
2257 H 41.14044930939281 42.38001059093388 102.66690222360947 H 0.0 **** 0.06
2258 H 42.57041931113412 43.4146264748308 102.43731944696395 H 0.0 **** 0.06
2259 H 42.76999980746035 41.7211260920828 102.94820259073231 H 0.0 **** 0.06
2260 H 42.08626195972971 42.91604172491995 104.0760663479762 H 0.0 **** 0.06
2261 C 120.05223893718733 49.414732978020766 34.98785714996302 C 0.0 **** -0.24
2262 H 119.7859145021682 50.4650186792753 34.872213704365095 H 0.0 **** 0.06
2263 H 120.24470948306782 48.978618086304465 34.007777527339044 H 0.0 **** 0.06
2264 H 119.23077535115866 48.88263194199875 35.46776990603132 H 0.0 **** 0.06
2265 H 120.94722807676243 49.33271994528016 35.60461033228512 H 0.0 **** 0.06
2266 C 167.85841248490922 106.3817826514518 139.1704672007887 C 0.0 **** -0.24
2267 H 168.68301535343764 105.6820693891404 139.30390866535006 H 0.0 **** 0.06
2268 H 166.92282723218534 105.82871384446543 139.08882586227497 H 0.0 **** 0.06
2269 H 168.01838050571516 106.96153626185551 138.26159803603616 H 0.0 **** 0.06
2270 H 167.80929349425375 107.054907463359 140.0265498517768 H 0.0 **** 0.06
2271 C 150.09133077883155 112.82272730460286 111.3228495127812 C 0.0 **** -0.24
2272 H 149.85223570616142 113.10878923231459 110.29841927376597 H 0.0 **** 0.06
2273 H 151.14592789439092 113.02292876095609 111.51782527107514 H 0.0 **** 0.06
2274 H 149.8915841162881 111.76024796988338 111.45929766744942 H 0.0 **** 0.06
2275 H 149.47753456116578 113.4000764746803 112.01388663932207 H 0.0 **** 0.06
2276 C 12.933199245259004 50.89343366295371 140.86644578362407 C 0.0 **** -0.24
2277 H 13.78868024644882 50.782878262186756 140.19997601749495 H 0.0 **** 0.06
2278 H 13.105527154632 50.31922717543141 141.7772417049402 H 0.0 **** 0.06
2279 H 12.035351045275405 50.52580578865445 140.36888416764137 H 0.0 **** 0.06
2280 H 12.802655099842212 51.94540476072001 141.11898529076595 H 0.0 **** 0.06
2281 C 136.99517756445363 157.53081217084232 52.77981231997252 C 0.0 **** -0.24
2282 H 137.35908918106614 158.19852413800382 51.99959233892602 H 0.0 **** 0.06
2283 H 137.71171458944434 157.50706352854147 53.6005564122901 H 0.0 **** 0.06
2284 H 136.87661459348982 156.5264950172297 52.37241315681386 H 0.0 **** 0.06
2285 H 136.0336698293512 157.8895001628705 53.146400602728065 H 0.0 **** 0.06
2286 C 72.7031398435927 152.20525494752954 85.12191617245915 C 0.0 **** -0.24
2287 H 72.77637211051157 152.05396917577974 86.19878330888794 H 0.0 **** 0.06
2288 H 72.65062152050338 153.27370570549428 84.90851973785617 H 0.0 **** 0.06
2289 H 71.80521529741907 151.71526796641928 84.74628945010302 H 0.0 **** 0.06
2290 H 73.58060377780048 151.78028232172684 84.63510770865406 H 0.0 **** 0.06
2291 C 84.85137626031371 10.62922378037996 146.36255381258093 C 0.0 **** -0.24
2292 H 84.16791312637896 10.600886056850413 147.2120250261973 H 0.0 **** 0.06
2293 H 84.67568539807347 11.538832829414389 145.78705461914777 H 0.0 **** 0.06
2294 H 84.67848016483771 9.759349716073473 145.72930881840358 H 0.0 **** 0.06
2295 H 85.87984777601139 10.618552499946958 146.72264357119906 H 0.0 **** 0.06
2296 C 0.2226156149111418 143.26623873938843 49.00903317033931 C 0.0 **** -0.24
2297 H 0.21744023713271332 142.4814580391042 48.251989130232346 H 0.0 **** 0.06
2298 H -0.6665535483304339 143.8856742856251 48.89665899167181 H 0.0 **** 0.06
2299 H 1.1132414383447653 143.88296610226863 48.88539171886487 H 0.0 **** 0.06
2300 H 0.22801765742397606 142.81366396774555 50.00077209128307 H 0.0 **** 0.06
2301 C 25.289480241149022 87.32945711852358 39.61942648008949 C 0.0 **** -0.24
2302 H 25.6251344789421 86.41282077729443 39.133985188267275 H 0.0 **** 0.06
2303 H 25.778234629262442 88.18602534587797 39.1537181557926 H 0.0 **** 0.06
2304 H 25.545783823695615 87.29520438950493 40.6784644483364 H 0.0 **** 0.06
2305 H 24.208629533427455 87.42414771700555 39.50933716489578 H 0.0 **** 0.06
2306 C 165.48257966607406 59.66789501643905 135.40614129382035 C 0.0 **** -0.24
2307 H 164.94613355950509 59.0714181712828 136.14370425232238 H 0.0 **** 0.06
2308 H 166.0466834052616 59.00954515908731 134.74623251659696 H 0.0 **** 0.06
2309 H 166.16658712814314 60.34539784949169 135.91655178381973 H 0.0 **** 0.06
2310 H 164.76833286728464 60.246861359487696 134.81935622860556 H 0.0 **** 0.06
2311 C 6.290950714224607 164.9109313741132 154.80454626934164 C 0.0 **** -0.24
2312 H 6.412789353312746 163.85976167786654 154.54211758070124 H 0.0 **** 0.06
2313 H 5.236860102417097 165.11885808676487 154.99066094842908 H 0.0 **** 0.06
2314 H 6.645946544583126 165.53349312317746 153.98382890730824 H 0.0 **** 0.06
2315 H 6.868456603814707 165.1292601786026 155.70342262076792 H 0.0 **** 0.06
2316 C 126.16808242473033 134.95675019851186 68.36342950366719 C 0.0 **** -0.24
2317 H 126.52752827699513 134.17912009907855 69.03644381109899 H 0.0 **** 0.06
2318 H 125.64980673535896 134.4973891307604 67.52189465834027 H 0.0 **** 0.06
2319 H 127.0131228698007 135.5392731993262 67.99610159590307 H 0.0 **** 0.06
2320 H 125.48069242575625 135.61144342301358 68.90002523879245 H 0.0 **** 0.06
2321 C 95.95459212427556 21.589890303727366 156.26432821865228 C 0.0 **** -0.24
2322 H 95.60538466786912 21.014423234142825 155.4079509979145 H 0.0 **** 0.06
2323 H 95.10808390992639 22.091770080076046 156.73458214997925 H 0.0 **** 0.06
2324 H 96.67885007237632 22.333569980266148 155.93123039337644 H 0.0 **** 0.06
2325 H 96.42625227476503 20.920563910621134 156.98415950538208 H 0.0 **** 0.06
2326 C 50.73299833383324 19.18438306066534 147.07692190453204 C 0.0 **** -0.24
2327 H 51.60534275796084 18.598267666897172 147.36618845700121 H 0.0 **** 0.06
2328 H 50.08999796558449 19.331355945244148 147.9443183904521 H 0.0 **** 0.06
2329 H 50.18127034973794 18.654304470450953 146.30034601339952 H 0.0 **** 0.06
2330 H 51.05660019329055 20.1529883256937 146.6950634495173 H 0.0 **** 0.06
2331 C 48.035880824802945 137.12842688017855 91.59769671359035 C 0.0 **** -0.24
2332 H 48.58592782567496 137.87406800370064 91.02355404951638 H 0.0 **** 0.06
2333 H 47.09412584619943 136.90616913285908 91.09519272470453 H 0.0 **** 0.06
2334 H 47.83314348315986 137.5142208869202 92.59632813438247 H 0.0 **** 0.06
2335 H 48.631136850041855 136.2184666125924 91.67378062825472 H 0.0 **** 0.06
2336 C 61.26839847781281 33.55936201451382 148.1427523319851 C 0.0 **** -0.24
2337 H 62.09168855254143 34.01939137032339 147.59642859636773 H 0.0 **** 0.06
2338 H 61.585230260811 33.34345541417318 149.16270827419248 H 0.0 **** 0.06
2339 H 60.97751184609538 32.63168677175848 147.64807885721297 H 0.0 **** 0.06
2340 H 60.41885238467546 34.24169242843827 148.1622411794591 H 0.0 **** 0.06
2341 C 140.6225546210673 168.97648861004188 99.12034031032772 C 0.0 **** -0.24
2342 H 141.3459514544211 169.47319774530789 98.47295227346473 H 0.0 **** 0.06
2343 H 140.9858945950601 167.9793325456286 99.37196915373781 H 0.0 **** 0.06
2344 H 139.66694338618873 168.8957049559784 98.60215949478572 H 0.0 **** 0.06
2345 H 140.49349397452045 169.55768164163152 100.03342310845227 H 0.0 **** 0.06
2346 C 108.70082159943644 92.98508408903771 141.82940648369413 C 0.0 **** -0.24
2347 H 109.55752124231014 93.30435581485236 141.23558539708745 H 0.0 **** 0.06
2348 H 108.11891590658166 93.85823642958911 142.12574912338906 H 0.0 **** 0.06
2349 H 109.05059999334134 92.46077293260456 142.71817644553306 H 0.0 **** 0.06
2350 H 108.07683928014461 92.3170736578349 141.23500986838798 H 0.0 **** 0.06
2351 C 61.13199031632374 156.13493884991792 131.53056585696356 C 0.0 **** -0.24
2352 H 61.21255711605173 156.87857297604182 130.73737264139274 H 0.0 **** 0.06
2353 H 60.613319801191864 156.57169503886934 132.38449801910548 H 0.0 **** 0.06
2354 H 62.12903808562582 155.81771351817616 131.83354931504704 H 0.0 **** 0.06
2355 H 60.571215006724415 155.27451243661375 131.16506943770992 H 0.0 **** 0.06
2356 C 69.3190459926708 132.38721584703814 27.935247112215052 C 0.0 **** -0.24
2357 H 69.67419412780828 132.15092312373054 28.938706009306884 H 0.0 **** 0.06
2358 H 68.23244366853622 132.47688404258207 27.947825318652292 H 0.0 **** 0.06
2359 H 69.61020739521274 131.59146864336375 27.249998547664802 H 0.0 **** 0.06
2360 H 69.75861984530152 133.32902065064985 27.60713475530224 H 0.0 **** 0.06
2361 C 37.744079459757415 152.14659274202072 124.8059189332171 C 0.0 **** -0.24
2362 H 38.54992796977831 152.80227672162871 124.47554052460703 H 0.0 **** 0.06
2363 H 37.282419203230404 151.67349851917646 123.93896918762746 H 0.0 **** 0.06
2364 H 36.99678626090892 152.7313684907 125.34234636116332 H 0.0 **** 0.06
2365 H 38.14788776095037 151.38021772422167 125.46754373174306 H 0.0 **** 0.06
2366 C 63.66700323876843 43.29805343912638 129.97850498421326 C 0.0 **** -0.24
2367 H 63.22668901315963 42.38944122350061 130.3884542406402 H 0.0 **** 0.06
2368 H 63.595813797441565 44.099959903091914 130.71484548522437 H 0.0 **** 0.06
2369 H 63.130960409198465 43.586727381118706 129.0752134568438 H 0.0 **** 0.06
2370 H 64.71503526309651 43.11728007949077 129.7382154242475 H 0.0 **** 0.06
2371 C 18.372163975199932 105.1124520400613 128.47968924804826 C 0.0 **** -0.24
2372 H 19.32395935748672 104.6352394531115 128.71610608810664 H 0.0 **** 0.06
2373 H 17.751215572027412 104.42099701982664 127.90913228166858 H 0.0 **** 0.06
2374 H 18.553282518879463 106.0103447701207 127.88964189617872 H 0.0 **** 0.06
2375 H 17.861684502362806 105.38182750825933 129.40478966097936 H 0.0 **** 0.06
2376 C 138.15557430118935 130.64067213292668 168.19423961130946 C 0.0 **** -0.24
2377 H 138.66983447243882 129.6918293451618 168.3484052281692 H 0.0 **** 0.06
2378 H 138.53684777183804 131.1169957346213 167.29048047409938 H 0.0 **** 0.06
2379 H 138.33172969684773 131.29125080597902 169.0506961737529 H 0.0 **** 0.06
2380 H 137.08623680118126 130.46077556980123 168.08768588101455 H 0.0 **** 0.06
2381 C 101.99431676166986 17.024115773629426 29.448197387764054 C 0.0 **** -0.24
2382 H 102.5198036524219 17.970363455154235 29.324613402831233 H 0.0 **** 0.06
2383 H 101.40115008395006 17.054066644170987 30.361800366956686 H 0.0 **** 0.06
2384 H 102.71909128648392 16.211422776224637 29.51258850339687 H 0.0 **** 0.06
2385 H 101.33851036159618 16.858527754931643 28.593848080115777 H 0.0 **** 0.06
2386 C 113.55592990904321 10.40099431226357 151.1364620894785 C 0.0 **** -0.24
2387 H 112.76859232093966 10.57527475490155 151.86989445673365 H 0.0 **** 0.06
2388 H 113.14088204675005 10.479994354260484 150.13147778041193 H 0.0 **** 0.06
2389 H 113.97262925041997 9.404313696911714 151.28137790071716 H 0.0 **** 0.06
2390 H 114.34172937766883 11.144948379885264 151.2643945068132 H 0.0 **** 0.06
2391 C 168.80418115453796 167.9086275663595 94.19148673305114 C 0.0 **** -0.24
2392 H 168.09971476900017 168.07484056235847 95.00738107546647 H 0.0 **** 0.06
2393 H 168.48812356091008 168.47779226077745 93.31762042985699 H 0.0 **** 0.06
2394 H 168.8293026887825 166.84666614652315 93.94452707630785 H 0.0 **** 0.06
2395 H 169.7978277967516 168.23405952475406 94.49898562298014 H 0.0 **** 0.06
2396 C 36.87300574310814 41.34554911238388 94.73984636709451 C 0.0 **** -0.24
2397 H 37.45174203146411 42.26352810648183 94.84994680206654 H 0.0 **** 0.06
2398 H 36.00571353097837 41.537983287697585 94.10805882386396 H 0.0 **** 0.06
2399 H 36.54027942783324 41.0061038801727 95.72064467086577 H 0.0 **** 0.06
2400 H 37.49456166072787 40.57756393764302 94.28090393039551 H 0.0 **** 0.06
2401 C 5.751092373951842 41.851339871740095 115.22090914228244 C 0.0 **** -0.24
2402 H 5.817961293244721 40.856045525307195 114.78054460946015 H 0.0 **** 0.06
2403 H 5.619264141469934 41.762662758139356 116.29940804354914 H 0.0 **** 0.06
2404 H 4.900398275808321 42.38137229947296 114.79245451884219 H 0.0 **** 0.06
2405 H 6.6668246188553155 42.40368266734407 115.01056164173048 H 0.0 **** 0.06
2406 C 14.81840567225025 113.12683857028844 39.84179511996123 C 0.0 **** -0.24
2407 H 14.282856411526836 113.36938158294521 38.92453886865994 H 0.0 **** 0.06
2408 H 14.268222275255312 113.51674234757317 40.698348368594054 H 0.0 **** 0.06
2409 H 15.811049230235398 113.57737823881442 39.81181195333778 H 0.0 **** 0.06
2410 H 14.913372098534985 112.04501223118965 39.93141830493494 H 0.0 **** 0.06
2411 C 128.27554902882568 158.12222706476697 58.30034034044752 C 0.0 **** -0.24
2412 H 128.62966716587835 157.29870700770712 58.92036150387594 H 0.0 **** 0.06
2413 H 127.32871004928782 158.49234527631634 58.69453910143028 H 0.0 **** 0.06
2414 H 128.13263443436063 157.77106169468092 57.27829117685087 H 0.0 **** 0.06
2415 H 129.01213445987824 158.9263143559832 58.3091008366643 H 0.0 **** 0.06
2416 C 100.15920645736543 124.09951146985799 114.30177591056895 C 0.0 **** -0.24
2417 H 100.80994012662023 123.28530986241918 113.98220646529384 H 0.0 **** 0.06
2418 H 100.72938397364476 124.80316814453141 114.90897529474486 H 0.0 **** 0.06
2419 H 99.33480762894993 123.69622447804693 114.89015790311194 H 0.0 **** 0.06
2420 H 99.7633236786092 124.61257575139854 113.42564404920171 H 0.0 **** 0.06
2421 C 65.35436054545819 50.77603856887896 164.01486681947213 C 0.0 **** -0.24
2422 H 65.20897697288997 49.91653624656419 163.35974424567453 H 0.0 **** 0.06
2423 H 66.0320304556469 51.48508451448873 163.53911212314404 H 0.0 **** 0.06
2424 H 65.78286570193177 50.44286516085626 164.96039789319687 H 0.0 **** 0.06
2425 H 64.39446613236773 51.25767233142727 164.20067266877643 H 0.0 **** 0.06
2426 C 153.1715548829968 72.3356952688155 34.779858393700025 C 0.0 **** -0.24
2427 H 153.65902402185492 71.4914690144331 34.29327640958769 H 0.0 **** 0.06
2428 H 152.75940358402138 72.01392483411756 35.73704558610012 H 0.0 **** 0.06
2429 H 152.36697036561597 72.70656995274307 34.1451057645548 H 0.0 **** 0.06
2430 H 153.89913862265877 73.12965856227657 34.94620248450117 H 0.0 **** 0.06
2431 C 160.3626622156368 50.5729547303399 4.105148747599969 C 0.0 **** -0.24
2432 H 161.32128619758998 50.055812504320414 4.090178012573688 H 0.0 **** 0.06
2433 H 159.68608385524462 50.06619140714116 4.792860769542415 H 0.0 **** 0.06
2434 H 159.93230900710245 50.568788506596206 3.1025037401431916 H 0.0 **** 0.06
2435 H 160.51086613779967 51.602259257861064 4.431521184967153 H 0.0 **** 0.06
2436 C 48.54531277771058 97.50623041456899 62.499774429975545 C 0.0 **** -0.24
2437 H 49.25413646283445 98.32539791410119 62.61422849597652 H 0.0 **** 0.06
2438 H 48.96523964325655 96.7527720084345 61.833153059356405 H 0.0 **** 0.06
2439 H 47.614439666809375 97.88661480825749 62.07745915631216 H 0.0 **** 0.06
2440 H 48.346212502171 97.05943263053678 63.474350251771014 H 0.0 **** 0.06
2441 C 168.65724094217126 140.33059526812903 134.2960465959707 C 0.0 **** -0.24
2442 H 168.81790734875526 141.01444387201943 135.12944300539962 H 0.0 **** 0.06
2443 H 169.180058817711 140.70418526235878 133.41461695136346 H 0.0 **** 0.06
2444 H 167.59089812804996 140.2614673103446 134.08350605032555 H 0.0 **** 0.06
2445 H 169.04139273580853 139.34441008536498 134.55527496685767 H 0.0 **** 0.06
2446 C 135.45187349663885 108.09739333617938 50.60001892707885 C 0.0 **** -0.24
2447 H 135.5826437912184 107.2536396750794 49.92228883252372 H 0.0 **** 0.06
2448 H 135.44012090473433 109.02466449479857 50.026796219388515 H 0.0 **** 0.06
2449 H 136.27586897643027 108.12129178675127 51.3137909661191 H 0.0 **** 0.06
2450 H 134.5096084447037 107.98900512909188 51.13649607887413 H 0.0 **** 0.06
2451 C 53.8904148037297 74.22169059843407 47.34319301995008 C 0.0 **** -0.24
2452 H 53.2518436623412 73.41037005731107 46.99359887594436 H 0.0 **** 0.06
2453 H 54.878784171484625 74.12638554080803 46.89240132335847 H 0.0 **** 0.06
2454 H 53.97950570992424 74.17199799483933 48.42894007739089 H 0.0 **** 0.06
2455 H 53.45150246614753 75.17758921684486 47.05873923838399 H 0.0 **** 0.06
2456 C 20.865342969842033 30.775267907235673 160.7362807971933 C 0.0 **** -0.24
2457 H 21.145794264686998 30.20737507724624 159.8497550156087 H 0.0 **** 0.06
2458 H 20.65478364264942 31.80679787607619 160.45500182267352 H 0.0 **** 0.06
2459 H 21.684502617104272 30.753967727163 161.4549893315033 H 0.0 **** 0.06
2460 H 19.97630564794065 30.330714238502168 161.18508353586265 H 0.0 **** 0.06
2461 C 53.45762807427782 162.4484773959588 138.1839435389889 C 0.0 **** -0.24
2462 H 53.21685380665319 163.45253097712566 137.833460491688 H 0.0 **** 0.06
2463 H 53.296763108980244 162.3916831410074 139.26116176184775 H 0.0 **** 0.06
2464 H 54.502031997043915 162.22732604180618 137.95998872589735 H 0.0 **** 0.06
2465 H 52.81696076100418 161.72451173012664 137.6810546089261 H 0.0 **** 0.06
2466 C 115.98374636909205 106.57431754939367 114.05112973254506 C 0.0 **** -0.24
2467 H 116.14491001211437 105.77381175609574 114.77354440281965 H 0.0 **** 0.06
2468 H 115.29253543742792 106.2340966472097 113.28006594169648 H 0.0 **** 0.06
2469 H 116.93395493280318 106.84740637786368 113.59338162316652 H 0.0 **** 0.06
2470 H 115.56245360525566 107.44143310591741 114.56006608604326 H 0.0 **** 0.06
2471 C 123.57264060193577 135.65360441084866 139.58624374143295 C 0.0 **** -0.24
2472 H 122.73606730156763 136.1251344537031 139.06988462519902 H 0.0 **** 0.06
2473 H 123.66979140263138 136.08075662511155 140.58451870480974 H 0.0 **** 0.06
2474 H 124.48992485763537 135.82692342373574 139.0241865572905 H 0.0 **** 0.06
2475 H 123.39201672242791 134.5814721659308 139.66579031553545 H 0.0 **** 0.06
2476 C 2.1679780988326556 110.37855979260254 156.2657867934133 C 0.0 **** -0.24
2477 H 2.451318901949449 111.38060143965572 155.9442705390574 H 0.0 **** 0.06
2478 H 1.1421750309400736 110.39177835749516 156.6337113949802 H 0.0 **** 0.06
2479 H 2.83638387158274 110.05050570870975 157.0615313578588 H 0.0 **** 0.06
2480 H 2.243623003984837 109.69215560002647 155.4222796355123 H 0.0 **** 0.06
2481 C 49.544736093431496 129.16050312802616 4.165229621030562 C 0.0 **** -0.24
2482 H 50.30630778711544 129.643089794832 3.5529504036355206 H 0.0 **** 0.06
2483 H 49.97458266472678 128.28778453679394 4.65863961256909 H 0.0 **** 0.06
2484 H 48.713547534755406 128.84786586867386 3.5331206817455723 H 0.0 **** 0.06
2485 H 49.18526200410156 129.86320013794074 4.916858832909838 H 0.0 **** 0.06
2486 C 114.0622382463159 64.47732763961614 88.01984191087179 C 0.0 **** -0.24
2487 H 114.5917870359977 63.55068211164257 88.24358363525097 H 0.0 **** 0.06
2488 H 114.63147821508252 65.05260597087272 87.28892200016512 H 0.0 **** 0.06
2489 H 113.94798647643142 65.06017145929641 88.93401848598168 H 0.0 **** 0.06
2490 H 113.07848961734882 64.24353610305641 87.6127026967405 H 0.0 **** 0.06
2491 C 88.77576704066405 36.584753164255346 104.84541048095127 C 0.0 **** -0.24
2492 H 89.83222769751882 36.316262303802375 104.87012369753077 H 0.0 **** 0.06
2493 H 88.20851715271158 35.780625653178845 104.37632018583585 H 0.0 **** 0.06
2494 H 88.64785875680212 37.5028447043768 104.27135334162071 H 0.0 **** 0.06
2495 H 88.41648115153777 36.73838979805532 105.86277649624839 H 0.0 **** 0.06
2496 C 160.82050729478283 129.732207585546 168.43922867189613 C 0.0 **** -0.24
2497 H 160.40942659535986 129.16094229123735 167.6074650150593 H 0.0 **** 0.06
2498 H 161.90975835189823 129.7121598155766 168.39068551689036 H 0.0 **** 0.06
2499 H 160.48926121428573 129.2931128728685 169.38016121268697 H 0.0 **** 0.06
2500 H 160.47341128672556 130.76409596014219 168.37726935723026 H 0.0 **** 0.06
2501 C 83.28829957068166 84.31112919660178 155.41393784656393 C 0.0 **** -0.24
2502 H 83.50291860407583 84.52665230433499 154.36694660385587 H 0.0 **** 0.06
2503 H 84.08967371108196 84.70848217952462 156.03741863942722 H 0.0 **** 0.06
2504 H 83.21822921127813 83.23274224882186 155.55586006791847 H 0.0 **** 0.06
2505 H 82.34451800214299 84.77642647742756 155.69491813506846 H 0.0 **** 0.06
2506 C 167.56570861516278 3.2411374222166955 164.46330846838416 C 0.0 **** -0.24
2507 H 167.9974461484036 2.952086713154358 165.4217856927499 H 0.0 **** 0.06
2508 H 168.2019193189669 2.8799543602677886 163.65514392574485 H 0.0 **** 0.06
2509 H 167.49243968148033 4.327696927924023 164.41136325673912 H 0.0 **** 0.06
2510 H 166.57207373786213 2.8045049635974237 164.36773659234024 H 0.0 **** 0.06
2511 C 71.55066272715138 111.25844812599516 116.42035905472784 C 0.0 **** -0.24
2512 H 70.8971580083085 111.80086479861592 115.73717978222541 H 0.0 **** 0.06
2513 H 72.16523985241706 110.55766770177593 115.85517506455753 H 0.0 **** 0.06
2514 H 70.94587044926418 110.71117884830835 117.14284974676417 H 0.0 **** 0.06
2515 H 72.19368928476727 111.96489401070406 116.9453049982379 H 0.0 **** 0.06
2516 C 74.05034465315478 5.775880055687992 81.3807217895744 C 0.0 **** -0.24
2517 H 74.05389796159695 4.8309779348000745 81.92366057793497 H 0.0 **** 0.06
2518 H 74.93266554561282 6.355301785633856 81.6534313424681 H 0.0 **** 0.06
2519 H 73.1521923058323 6.33867675874157 81.63576183961483 H 0.0 **** 0.06
2520 H 74.063195057882 5.578523143942419 80.30787214592011 H 0.0 **** 0.06
2521 C 111.53197948789773 75.86183545931172 114.74341816562048 C 0.0 **** -0.24
2522 H 112.53040612722171 75.42474285052171 114.74463339930952 H 0.0 **** 0.06
2523 H 111.43550441606399 76.54460460488497 113.89878566491464 H 0.0 **** 0.06
2524 H 111.37366379299581 76.40870891352495 115.67319166766714 H 0.0 **** 0.06
2525 H 110.7891961719827 75.06881523164253 114.65729008080964 H 0.0 **** 0.06
2526 C 80.44895509331675 110.45220364111466 105.65691121522079 C 0.0 **** -0.24
2527 H 81.03909368933381 110.57866458281873 106.56401056166388 H 0.0 **** 0.06
2528 H 81.09966647183302 110.13457099369657 104.84178459549253 H 0.0 **** 0.06
2529 H 79.97538447379918 111.39853250821471 105.39645639027026 H 0.0 **** 0.06
2530 H 79.68209685061356 109.69642584475397 105.82605475474662 H 0.0 **** 0.06
2531 C 95.69554789649771 118.28983971955665 86.14501333842307 C 0.0 **** -0.24
2532 H 94.97569304780961 118.68914170811078 86.85838495260029 H 0.0 **** 0.06
2533 H 95.74907343351751 117.20599574164592 86.25075572318134 H 0.0 **** 0.06
2534 H 96.67722531785276 118.72291415935848 86.33863712997507 H 0.0 **** 0.06
2535 H 95.38019978681098 118.54130726911137 85.13227554793578 H 0.0 **** 0.06
2536 C 169.64323007712693 14.457281959800923 144.02506049904002 C 0.0 **** -0.24
2537 H 169.56870992642808 15.1710577003725 143.20479644544656 H 0.0 **** 0.06
2538 H 168.64489099364482 14.112054261145857 144.29678672166628 H 0.0 **** 0.06
2539 H 170.1082077555215 14.939550828620668 144.88478933810288 H 0.0 **** 0.06
2540 H 170.24961340583326 13.607081928103185 143.71232841485013 H 0.0 **** 0.06
2541 C 93.75044335965694 110.5991090928814 117.56428762757992 C 0.0 **** -0.24
2542 H 94.44375218226696 111.44038545867639 117.53241012452051 H 0.0 **** 0.06
2543 H 93.30813824092684 110.45540740779984 116.57899063453414 H 0.0 **** 0.06
2544 H 92.96391101346563 110.80513998235787 118.29079182439995 H 0.0 **** 0.06
2545 H 94.28849817067783 109.69676892916192 117.85696231038551 H 0.0 **** 0.06
2546 C 115.22751323381573 162.59704287464922 158.53560601035235 C 0.0 **** -0.24
2547 H 114.78128133056822 162.8108454640675 157.56438784422897 H 0.0 **** 0.06
2548 H 114.748192452215 163.21184390484026 159.29793762342283 H 0.0 **** 0.06
2549 H 116.29326074505875 162.82365604077367 158.50343609998342 H 0.0 **** 0.06
2550 H 115.0865130483015 161.5436203513609 158.7762989759155 H 0.0 **** 0.06
2551 C 153.83668097214172 63.10098784101194 47.3112840947982 C 0.0 **** -0.24
2552 H 154.30315226175216 62.59694459057401 48.15812300622876 H 0.0 **** 0.06
2553 H 154.59008196725927 63.30206263091961 46.548582252211176 H 0.0 **** 0.06
2554 H 153.39826836112434 64.04147327180007 47.64615084888388 H 0.0 **** 0.06
2555 H 153.05700645725847 62.46439053506165 46.89368298107415 H 0.0 **** 0.06
2556 C 39.57820289696902 132.3447272625066 170.2993791377231 C 0.0 **** -0.24
2557 H 39.37182974362257 131.3963808050522 170.795862080864 H 0.0 **** 0.06
2558 H 40.18265294310132 132.97300724726352 170.95485044387684 H 0.0 **** 0.06
2559 H 38.63926184404532 132.84999922360367 170.07642603049555 H 0.0 **** 0.06
2560 H 40.12037255517696 132.15904470523614 169.3728413883444 H 0.0 **** 0.06
2561 C 171.9852524561312 70.05344781257901 164.01591617365702 C 0.0 **** -0.24
2562 H 172.0608073012611 71.0161419428646 163.50990365004589 H 0.0 **** 0.06
2563 H 172.4855083408528 70.11229481877987 164.98326270055773 H 0.0 **** 0.06
2564 H 172.4592746032908 69.28520270625447 163.4070076603265 H 0.0 **** 0.06
2565 H 170.93463045535603 69.80291864661399 164.1643403881102 H 0.0 **** 0.06
2566 C 127.17666273843727 75.97598348902005 151.0324926115398 C 0.0 **** -0.24
2567 H 126.59478113389488 76.71539667345075 150.48218530875013 H 0.0 **** 0.06
2568 H 127.97020278815813 75.58836669077272 150.39285316635198 H 0.0 **** 0.06
2569 H 126.52498335533994 75.15789999818799 151.3410012779176 H 0.0 **** 0.06
2570 H 127.61580266858263 76.44246850545426 151.91501913794357 H 0.0 **** 0.06
2571 C 117.29802647708914 127.7252151187285 154.76063167402097 C 0.0 **** -0.24
2572 H 117.73795041686105 127.28394775435123 153.86663155760306 H 0.0 **** 0.06
2573 H 116.28299440878754 128.05624936634064 154.54066027433797 H 0.0 **** 0.06
2574 H 117.89785229541161 128.57804338177408 155.07814564443265 H 0.0 **** 0.06
2575 H 117.27305133653743 126.98166568624777 155.5572411568266 H 0.0 **** 0.06
2576 C 160.7230520423114 76.9674167959021 21.07298373809283 C 0.0 **** -0.24
2577 H 161.49726288149122 76.4766487290137 20.483133360301736 H 0.0 **** 0.06
2578 H 160.62628059148275 76.46530064692661 22.03579932549357 H 0.0 **** 0.06
2579 H 159.77414440509716 76.91671002385237 20.538956298208205 H 0.0 **** 0.06
2580 H 160.99479169090176 78.010997633973 21.23161154713057 H 0.0 **** 0.06
2581 C 139.8074724949958 36.0325308625129 148.1755418197013 C 0.0 **** -0.24
2582 H 139.37698161839302 36.224452798646695 147.19273321184258 H 0.0 **** 0.06
2583 H 139.27532911845708 36.619720169319194 148.92601594699377 H 0.0 **** 0.06
2584 H 140.86040928816362 36.31372954992422 148.17278806995697 H 0.0 **** 0.06
2585 H 139.7150471093487 34.97248393482391 148.4112815833799 H 0.0 **** 0.06
2586 C 155.63447528085607 28.74867276577129 131.9551199358032 C 0.0 **** -0.24
2587 H 156.48640228803282 28.440805233159438 131.35121012243263 H 0.0 **** 0.06
2588 H 155.29869657446932 27.909471782904546 132.56588143564997 H 0.0 **** 0.06
2589 H 154.82287461580097 29.069431482878713 131.30162058155506 H 0.0 **** 0.06
2590 H 155.92716467143134 29.574951999587313 132.60293606135525 H 0.0 **** 0.06
2591 C 51.02773860912535 41.64703443413589 46.43186100095792 C 0.0 **** -0.24
2592 H 50.47190533532694 42.49253563416568 46.837743114845466 H 0.0 **** 0.06
2593 H 51.1229125628123 41.7597905698201 45.35178222414606 H 0.0 **** 0.06
2594 H 50.49607959453775 40.7220593255816 46.65630239659254 H 0.0 **** 0.06
2595 H 52.01984093787621 41.614044070527086 46.882548032718745 H 0.0 **** 0.06
2596 C 150.30388202592195 90.1014859366714 50.713743043198846 C 0.0 **** -0.24
2597 H 150.05442503732075 89.81562821817295 51.73592833965324 H 0.0 **** 0.06
2598 H 149.94363622503766 89.33644348395904 50.025693478099015 H 0.0 **** 0.06
2599 H 151.38544098595727 90.19711437009806 50.61755257842289 H 0.0 **** 0.06
2600 H 149.83184746367257 91.05450570091557 50.477499838614634 H 0.0 **** 0.06
2601 C 142.15288711999096 110.41561303647444 138.83177134883064 C 0.0 **** -0.24
2602 H 141.53134824423876 111.305364950551 138.9325291915395 H 0.0 **** 0.06
2603 H 141.79734403162877 109.81756574827807 137.99160660904923 H 0.0 **** 0.06
2604 H 142.09513011966646 109.82657480627802 139.7466441567785 H 0.0 **** 0.06
2605 H 143.1862851850472 110.71223831887198 138.65377120426115 H 0.0 **** 0.06
2606 C 48.54982193767205 124.33510925305512 146.76989964762805 C 0.0 **** -0.24
2607 H 48.99294353103414 123.42068824619946 147.16540525356794 H 0.0 **** 0.06
2608 H 49.2443871623708 124.80140489334366 146.0699819702075 H 0.0 **** 0.06
2609 H 48.34378845814899 125.0228821856511 147.5892858503687 H 0.0 **** 0.06
2610 H 47.620832211038646 124.09548803593424 146.2539743587514 H 0.0 **** 0.06
2611 C 48.08056547001354 157.1927124066499 89.58614144659452 C 0.0 **** -0.24
2612 H 47.30896860319673 156.89241469169113 88.87755219351016 H 0.0 **** 0.06
2613 H 48.15204484422354 156.44973336298682 90.38151435953682 H 0.0 **** 0.06
2614 H 47.822745465207845 158.16089049742362 90.01500413465317 H 0.0 **** 0.06
2615 H 49.03837403106607 157.26682240921858 89.07041799931267 H 0.0 **** 0.06
2616 C 39.25981193729126 134.7475252478229 9.334570361428028 C 0.0 **** -0.24
2617 H 39.682548429969586 134.23096597987782 10.196073440351064 H 0.0 **** 0.06
2618 H 39.793482702312815 134.4457314154172 8.432946713756102 H 0.0 **** 0.06
2619 H 39.358454397637274 135.82378809220748 9.472690284702225 H 0.0 **** 0.06
2620 H 38.206253079964654 134.48826936192683 9.23755354242968 H 0.0 **** 0.06
2621 C 99.20866252466823 149.1313348359874 80.40009995975436 C 0.0 **** -0.24
2622 H 100.10120137013763 149.04828116720594 81.0209580008459 H 0.0 **** 0.06
2623 H 98.33462021808344 148.83805494153452 80.98049301535008 H 0.0 **** 0.06
2624 H 99.30654300868167 148.4760910551704 79.53418125607544 H 0.0 **** 0.06
2625 H 99.09429212379251 150.16193294017526 80.06464633553355 H 0.0 **** 0.06
2626 C 58.9069278157433 131.55504054831758 2.558271048896472 C 0.0 **** -0.24
2627 H 59.55596729888062 131.33432681491234 1.71124545120324 H 0.0 **** 0.06
2628 H 57.93577864808239 131.08415752556135 2.4051284226846406 H 0.0 **** 0.06
2629 H 58.778067755849335 132.63423847807798 2.6455127832773258 H 0.0 **** 0.06
2630 H 59.3579637225844 131.16805960795136 3.471979178492944 H 0.0 **** 0.06
2631 C 3.7801446948069497 53.671395885036134 98.18219432877476 C 0.0 **** -0.24
2632 H 3.7854318412206283 54.17188195845638 99.15064511742466 H 0.0 **** 0.06
2633 H 3.064202362648132 54.16254631166571 97.52327626337689 H 0.0 **** 0.06
2634 H 3.4954640766368357 52.626972685577044 98.31547356064712 H 0.0 **** 0.06
2635 H 4.775853537888224 53.72338513335218 97.7411782091836 H 0.0 **** 0.06
2636 C 31.272882330674975 32.211119107496415 145.73184922018896 C 0.0 **** -0.24
2637 H 31.77474285505218 33.09785231656491 145.34420063679616 H 0.0 **** 0.06
2638 H 30.40325198644723 32.51225845977444 146.3160618047331 H 0.0 **** 0.06
2639 H 31.96173424876838 31.65218550064469 146.36563108887438 H 0.0 **** 0.06
2640 H 30.953054111177266 31.58237861305264 144.9003250102073 H 0.0 **** 0.06
2641 C 66.15427199615004 64.04084992800662 163.42208065457746 C 0.0 **** -0.24
2642 H 66.56496088138759 64.85425796361106 162.82538882211924 H 0.0 **** 0.06
2643 H 65.48746696824352 63.4380296798212 162.80517061086917 H 0.0 **** 0.06
2644 H 65.59713275482687 64.45422981585322 164.2635948590262 H 0.0 **** 0.06
2645 H 66.96741007124243 63.41808289130259 163.79605110225805 H 0.0 **** 0.06
2646 C 46.244590821933414 119.03393119397705 92.39236874591228 C 0.0 **** -0.24
2647 H 46.72955892347801 118.40810274841667 91.6430631419403 H 0.0 **** 0.06
2648 H 45.462768586334434 119.62777380548036 91.9188298028568 H 0.0 **** 0.06
2649 H 46.98283693542403 119.69706413635711 92.84332945606783 H 0.0 **** 0.06
2650 H 45.80510597357403 118.40166967098637 93.16390463068359 H 0.0 **** 0.06
2651 C 144.74347003689581 49.363805425299304 76.25617280874792 C 0.0 **** -0.24
2652 H 145.6889278228639 49.59669943663499 76.744658327087 H 0.0 **** 0.06
2653 H 144.7282966041184 49.81089213353307 75.26186076214921 H 0.0 **** 0.06
2654 H 143.92071514165937 49.765596152461356 76.84724113674008 H 0.0 **** 0.06
2655 H 144.6349837748489 48.28273431524694 76.17016022348895 H 0.0 **** 0.06
2656 C 163.8489405782349 167.8335713838925 46.75886149130906 C 0.0 **** -0.24
2657 H 163.25436668845578 167.17108752890164 47.38831778915046 H 0.0 **** 0.06
2658 H 163.40327120766773 167.8856758401102 45.76520705486 H 0.0 **** 0.06
2659 H 164.86418127189475 167.4459626014816 46.68192049804267 H 0.0 **** 0.06
2660 H 163.87164643104413 168.82965554971105 47.200316980955776 H 0.0 **** 0.06
2661 C 139.6481046314421 171.3196586437778 41.646167955226474 C 0.0 **** -0.24
2662 H 140.26496760178247 171.55378633651947 42.513929726187015 H 0.0 **** 0.06
2663 H 140.19161688932724 171.57221649939552 40.735735563758084 H 0.0 **** 0.06
2664 H 138.72423433920184 171.89622697510453 41.69049427573057 H 0.0 **** 0.06
2665 H 139.4119251787353 170.255320909406 41.64536041530931 H 0.0 **** 0.06
2666 C 151.8803802235081 112.61823019184104 12.952155499004178 C 0.0 **** -0.24
2667 H 151.94661749663962 112.15101636931976 13.934922034854672 H 0.0 **** 0.06
2668 H 152.0233413234264 111.86101263236498 12.180102439778274 H 0.0 **** 0.06
2669 H 152.65311113254086 113.38132221645165 12.8607406195312 H 0.0 **** 0.06
2670 H 150.89927634969308 113.07809031824695 12.833218372035134 H 0.0 **** 0.06
2671 C 64.05713377343056 28.355054096173888 53.01340455302221 C 0.0 **** -0.24
2672 H 63.570131357012 29.0429014099808 52.32151082563415 H 0.0 **** 0.06
2673 H 65.0378340374272 28.082363542747174 52.623691791258295 H 0.0 **** 0.06
2674 H 63.4473536220753 27.458629878394447 53.12304922928172 H 0.0 **** 0.06
2675 H 64.17233087785694 28.837996631558156 53.984178647297625 H 0.0 **** 0.06
2676 C 122.7173527065483 47.606593100632665 45.21284513212342 C 0.0 **** -0.24
2677 H 123.05526144272534 46.62087554698692 44.89371230192606 H 0.0 **** 0.06
2678 H 122.59626906529724 47.61500463552392 46.296630266266476 H 0.0 **** 0.06
2679 H 121.76333377892405 47.83457769732095 44.738382203695664 H 0.0 **** 0.06
2680 H 123.45546101619243 48.35584001203827 44.92373197031149 H 0.0 **** 0.06
2681 C 149.566665136577 138.20257196728744 141.28165327330242 C 0.0 **** -0.24
2682 H 150.20743621325272 137.32677591756402 141.38008024636588 H 0.0 **** 0.06
2683 H 149.6316572456421 138.80376739615332 142.18920398856108 H 0.0 **** 0.06
2684 H 148.5355741417389 137.8832894414179 141.12959993705033 H 0.0 **** 0.06
2685 H 149.89277478233595 138.7961993368114 140.42716029359616 H 0.0 **** 0.06
2686 C 57.00552432768136 48.13584979924201 113.58107112930833 C 0.0 **** -0.24
2687 H 58.00357731555603 47.79998277459691 113.86153101131012 H 0.0 **** 0.06
2688 H 56.642297640066786 48.85095345510936 114.31950889486879 H 0.0 **** 0.06
2689 H 56.33164136180571 47.28031240581913 113.54132582871486 H 0.0 **** 0.06
2690 H 57.04416219041221 48.61346701684184 112.60161611884769 H 0.0 **** 0.06
2691 C 13.818345850522476 125.20906946766297 49.185762435073514 C 0.0 **** -0.24
2692 H 13.972498955987312 124.15312402849224 48.9661395667238 H 0.0 **** 0.06
2693 H 14.406524976226557 125.48736023585056 50.061166795923114 H 0.0 **** 0.06
2694 H 12.762439811408449 125.38912754985944 49.38568413715029 H 0.0 **** 0.06
2695 H 14.134008113518355 125.80768742829406 48.33083081204035 H 0.0 **** 0.06
2696 C 16.614600861605844 27.635778755019743 9.021336296937527 C 0.0 **** -0.24
2697 H 17.013909227408085 27.74543332428911 8.012831015804167 H 0.0 **** 0.06
2698 H 17.036920113414944 26.74340401749555 9.484248801355768 H 0.0 **** 0.06
2699 H 15.529536064080453 27.54195816775544 8.973678380495045 H 0.0 **** 0.06
2700 H 16.87804717414425 28.51158157078123 9.613020004037715 H 0.0 **** 0.06
2701 C 170.977997778426 71.42476533514989 152.5955132725343 C 0.0 **** -0.24
2702 H 171.15352976967858 70.37282437905372 152.8217961568087 H 0.0 **** 0.06
2703 H 170.12524965661746 71.78310606393438 153.17241859958204 H 0.0 **** 0.06
2704 H 170.77060967139107 71.53791238149037 151.53180133717095 H 0.0 **** 0.06
2705 H 171.86304691467495 72.00467665248478 152.85726520862886 H 0.0 **** 0.06
2706 C 28.719238397295896 100.18494894699509 137.39738608240145 C 0.0 **** -0.24
2707 H 29.704922013572144 99.80444434851688 137.6646130173588 H 0.0 **** 0.06
2708 H 28.466314034226116 99.86051592526817 136.38702044519508 H 0.0 **** 0.06
2709 H 28.727221015082023 101.27398458774621 137.43769519310348 H 0.0 **** 0.06
2710 H 27.978213574009033 99.80095989714559 138.0992627356933 H 0.0 **** 0.06
2711 C 171.5724010678802 31.4542386034486 72.96196106101641 C 0.0 **** -0.24
2712 H 172.61461429611876 31.62915869798502 73.22958531538899 H 0.0 **** 0.06
2713 H 171.33278326316923 32.009483769424605 72.0541855684376 H 0.0 **** 0.06
2714 H 170.92832832980554 31.78908208598051 73.77435093199301 H 0.0 **** 0.06
2715 H 171.41677164255887 30.388990046020723 72.78896626274756 H 0.0 **** 0.06
2716 C 127.26375134204568 157.2324065436954 76.75015787159761 C 0.0 **** -0.24
2717 H 126.66341181540724 156.37989565191666 76.43224621516175 H 0.0 **** 0.06
2718 H 127.6756650138081 157.7340702874559 75.87436177239883 H 0.0 **** 0.06
2719 H 128.07799577952557 156.88621058945756 77.38685917205123 H 0.0 **** 0.06
2720 H 126.63837013403591 157.9291274548844 77.30847006497777 H 0.0 **** 0.06
2721 C 5.372731458316309 34.71910835309956 123.2763546052548 C 0.0 **** -0.24
2722 H 4.406373163654976 35.01259689053006 122.86610064116178 H 0.0 **** 0.06
2723 H 5.244321327979257 34.387873261683865 124.30786824887755 H 0.0 **** 0.06
2724 H 6.0527417041732505 35.5706248869991 123.24958062383959 H 0.0 **** 0.06
2725 H 5.7865405156937655 33.90431210012028 122.68208335372282 H 0.0 **** 0.06
2726 C 12.784621287481173 172.29541071282415 83.54605722906287 C 0.0 **** -0.24
2727 H 13.795684878726775 172.22137719572942 83.14541194721775 H 0.0 **** 0.06
2728 H 12.218568477558591 173.02870378976334 82.97144025162183 H 0.0 **** 0.06
2729 H 12.829071951704606 172.60705764926306 84.58962922542253 H 0.0 **** 0.06
2730 H 12.296052531530933 171.3234417332633 83.47802005470518 H 0.0 **** 0.06
2731 C 96.61526188687924 58.767941760080404 93.13313784361003 C 0.0 **** -0.24
2732 H 97.10550435172922 57.96672346619323 93.68460018016629 H 0.0 **** 0.06
2733 H 96.01010749925771 59.36185199642442 93.81791370221686 H 0.0 **** 0.06
2734 H 95.97521156503035 58.33851559525908 92.36147990172094 H 0.0 **** 0.06
2735 H 97.3685431370134 59.4028946555585 92.66859364101776 H 0.0 **** 0.06
2736 C 90.29049764437161 91.67158638824523 46.47870061682136 C 0.0 **** -0.24
2737 H 91.11550203214236 91.15743888675216 45.984737747392714 H 0.0 **** 0.06
2738 H 90.6230904843565 92.6568003254105 46.808387949999855 H 0.0 **** 0.06
2739 H 89.96415298250484 91.09028554153214 47.34133766965277 H 0.0 **** 0.06
2740 H 89.4611462221574 91.78299775758214 45.78031540305966 H 0.0 **** 0.06
2741 C 8.420197715231396 73.73282616244238 157.2582478740311 C 0.0 **** -0.24
2742 H 8.334786796648864 73.81211229262063 158.34268316987374 H 0.0 **** 0.06
2743 H 8.713657996871376 72.7177215941685 156.99133973434266 H 0.0 **** 0.06
2744 H 9.173597480512441 74.43503783116684 156.9017009015052 H 0.0 **** 0.06
2745 H 7.459614622457366 73.96579984486326 156.8000693746643 H 0.0 **** 0.06
2746 C 170.83525942158525 112.21644447809933 90.91163422266277 C 0.0 **** -0.24
2747 H 170.7880874361329 113.24847648563212 90.56425558052439 H 0.0 **** 0.06
2748 H 170.07768517119004 112.0576443908511 91.67990696596866 H 0.0 **** 0.06
2749 H 171.82194320884983 112.01779286707693 91.32774330930465 H 0.0 **** 0.06
2750 H 170.6512119718427 111.54371156011968 90.07426266281163 H 0.0 **** 0.06
2751 C 9.320491718266368 26.36924790627529 143.64225617381547 C 0.0 **** -0.24
2752 H 9.803977519031093 26.8714397195306 144.4808312019461 H 0.0 **** 0.06
2753 H 9.444086975986153 25.29076491506987 143.74461757602984 H 0.0 **** 0.06
2754 H 9.777560323263032 26.70019040714203 142.70879188226172 H 0.0 **** 0.06
2755 H 8.259160124410073 26.615615003623702 143.63493085171564 H 0.0 **** 0.06
2756 C 77.4549977967127 22.86639954810863 135.09163195936645 C 0.0 **** -0.24
2757 H 78.40373871149788 22.47531815950026 134.72522209734686 H 0.0 **** 0.06
2758 H 76.63637608673515 22.41332308885518 134.5321952685331 H 0.0 **** 0.06
2759 H 77.43170726022693 23.947703503435946 134.95785423444693 H 0.0 **** 0.06
2760 H 77.34814353919135 22.627892186606232 136.14948240729962 H 0.0 **** 0.06
2761 C 131.74453309130826 168.73641884043292 149.93688601301074 C 0.0 **** -0.24
2762 H 131.5747794194447 169.74665638749974 149.56423741326464 H 0.0 **** 0.06
2763 H 130.89761040776068 168.10370191023964 149.66875642036112 H 0.0 **** 0.06
2764 H 131.84935023499108 168.76198229058951 151.02122961305352 H 0.0 **** 0.06
2765 H 132.65401392768248 168.33339416617494 149.49273753524363 H 0.0 **** 0.06
2766 C 65.93475511979926 4.066933207335978 100.29838180623807 C 0.0 **** -0.24
2767 H 66.2391663601861 3.1555932394368256 100.81178360594569 H 0.0 **** 0.06
2768 H 65.87864973983989 4.885638644428468 101.0162758082086 H 0.0 **** 0.06
2769 H 64.95716516062495 3.9175001852155447 99.84048900569607 H 0.0 **** 0.06
2770 H 66.66483573781458 4.309737364110788 99.52693408295593 H 0.0 **** 0.06
2771 C 6.664046369796324 165.13400560000935 43.06386190776587 C 0.0 **** -0.24
2772 H 5.9256379286277365 165.02339222391078 42.269975373125874 H 0.0 **** 0.06
2773 H 7.6661446575567425 165.05349062134832 42.640559894756905 H 0.0 **** 0.06
2774 H 6.5196979782999165 164.35051014909624 43.80723165619543 H 0.0 **** 0.06
2775 H 6.547123689342641 166.10941546764872 43.535801367969526 H 0.0 **** 0.06
2776 C 156.14562429767554 74.78984716950875 59.14518933099677 C 0.0 **** -0.24
2777 H 156.97840660426385 75.27597271939739 59.6537104947395 H 0.0 **** 0.06
2778 H 155.74189624244278 75.46157434169729 58.38729325432112 H 0.0 **** 0.06
2779 H 155.36819526832704 74.55014553762459 59.8701447763612 H 0.0 **** 0.06
2780 H 156.49476816868162 73.87395979605301 58.67014194963377 H 0.0 **** 0.06
2781 C 113.9592406123316 76.20638038534149 150.24495936923222 C 0.0 **** -0.24
2782 H 114.56577775096582 76.95465843255306 150.75658314645636 H 0.0 **** 0.06
2783 H 113.49817057986928 75.54702195936584 150.98075288227741 H 0.0 **** 0.06
2784 H 114.59233883169165 75.62147538315686 149.5779046772294 H 0.0 **** 0.06
2785 H 113.18285442953157 76.70416490896109 149.66447575006364 H 0.0 **** 0.06
2786 C 16.366887296492024 21.597087852626288 155.52307122518627 C 0.0 **** -0.24
2787 H 17.16770915390623 21.477477689473545 154.79444244285872 H 0.0 **** 0.06
2788 H 16.312598264689143 20.707762794947882 156.15243906630906 H 0.0 **** 0.06
2789 H 15.419030127521438 21.732624190847872 155.0027483854636 H 0.0 **** 0.06
2790 H 16.568473752601165 22.47036005702617 156.1443624408366 H 0.0 **** 0.06
2791 C 114.63433062103832 89.19270288206316 13.619509343206289 C 0.0 **** -0.24
2792 H 115.18734300955722 88.75206199978841 12.789329768491882 H 0.0 **** 0.06
2793 H 114.9469518411517 90.22880955533971 13.753248448147161 H 0.0 **** 0.06
2794 H 114.83684696948632 88.63029795660479 14.531056389176399 H 0.0 **** 0.06
2795 H 113.56611865325974 89.16061447549154 13.402390152322113 H 0.0 **** 0.06
2796 C 143.70665705046412 57.795545567982956 160.67814905079024 C 0.0 **** -0.24
2797 H 143.28868411358167 56.833684741538676 160.97461414198074 H 0.0 **** 0.06
2798 H 143.80557413095346 57.83024220383383 159.59272251314547 H 0.0 **** 0.06
2799 H 144.68787363255444 57.92115278638778 161.13671098924078 H 0.0 **** 0.06
2800 H 143.0464087330115 58.5965590269451 161.0087662737616 H 0.0 **** 0.06
2801 C 144.6443004179657 128.51139833369197 27.940064131268173 C 0.0 **** -0.24
2802 H 143.68251128890395 128.16297939255514 28.317072235597493 H 0.0 **** 0.06
2803 H 144.50894515622178 128.94852115156812 26.950487557283992 H 0.0 **** 0.06
2804 H 145.3351575807447 127.67049277936081 27.874692650798465 H 0.0 **** 0.06
2805 H 145.04903377464677 129.26298160030947 28.617553375830084 H 0.0 **** 0.06
2806 C 65.54470392526622 71.94795928055153 26.441079415130766 C 0.0 **** -0.24
2807 H 66.07087503295799 70.99526399946467 26.38392312036617 H 0.0 **** 0.06
2808 H 65.42627634714961 72.23633398190118 27.485543452346874 H 0.0 **** 0.06
2809 H 64.56347286882146 71.84909824120277 25.977649514377482 H 0.0 **** 0.06
2810 H 66.11903097943554 72.71163969814943 25.91617861213244 H 0.0 **** 0.06
2811 C 71.1621386871842 31.816009327074312 165.69544793328225 C 0.0 **** -0.24
2812 H 71.29881393129912 32.69348070872746 165.0627062307975 H 0.0 **** 0.06
2813 H 71.61610091519843 31.998102642752656 166.6710911002252 H 0.0 **** 0.06
2814 H 71.63781531725135 30.954038519704568 165.2281190946055 H 0.0 **** 0.06
2815 H 70.09726729756099 31.621169998983305 165.82045084955095 H 0.0 **** 0.06
2816 C 151.00535324621993 38.908895566375776 98.97813033635839 C 0.0 **** -0.24
2817 H 150.5023231187664 39.31092568227706 99.85748615575139 H 0.0 **** 0.06
2818 H 150.26274918910966 38.523262584801756 98.27892962875353 H 0.0 **** 0.06
2819 H 151.67394752569945 38.10135398126587 99.28035960249494 H 0.0 **** 0.06
2820 H 151.58373494320878 39.697868465966394 98.49732209652788 H 0.0 **** 0.06
2821 C 30.617867325551202 49.36108733340242 113.41662284204821 C 0.0 **** -0.24
2822 H 31.150979031079885 48.58422723531109 113.96640692234175 H 0.0 **** 0.06
2823 H 29.728578941997966 49.654483130843715 113.9735350730092 H 0.0 **** 0.06
2824 H 30.325845406756798 48.978854549104824 112.43893144952423 H 0.0 **** 0.06
2825 H 31.26961943353254 50.22587536149646 113.28835722373219 H 0.0 **** 0.06
2826 C 156.42244974652039 139.51628059071624 165.24676169233635 C 0.0 **** -0.24
2827 H 156.31644602218364 140.4814098980487 164.752443185181 H 0.0 **** 0.06
2828 H 156.06048719817852 139.59182520186454 166.2727413926313 H 0.0 **** 0.06
2829 H 157.47229819734278 139.22380750934812 165.2527535520449 H 0.0 **** 0.06
2830 H 155.84029201908044 138.7665560630399 164.70988486332607 H 0.0 **** 0.06
2831 C 21.74039796075688 40.9763030284081 30.35176418524145 C 0.0 **** -0.24
2832 H 21.485932694611705 41.69831524635009 29.575404739082614 H 0.0 **** 0.06
2833 H 21.510130233225617 41.39817593406872 31.33021766786146 H 0.0 **** 0.06
2834 H 22.803609083273635 40.74299158362214 30.296927546835775 H 0.0 **** 0.06
2835 H 21.159455819510946 40.0649969369328 30.20296002736319 H 0.0 **** 0.06
2836 C 129.9135508047552 94.45609843045122 35.40432354622122 C 0.0 **** -0.24
2837 H 128.96365324579725 94.41529785124266 35.93754688655687 H 0.0 **** 0.06
2838 H 130.44718356050927 95.3653247434695 35.68327302427784 H 0.0 **** 0.06
2839 H 129.72839001400112 94.45769719481697 34.33087160589727 H 0.0 **** 0.06
2840 H 130.5157707335226 93.5861193102761 35.668495283653414 H 0.0 **** 0.06
2841 C 111.53809990889116 18.4869514366452 9.874816918827477 C 0.0 **** -0.24
2842 H 110.5750984876299 18.92037885042521 10.145288973902247 H 0.0 **** 0.06
2843 H 111.58924573832073 18.359884177226377 8.794013436645521 H 0.0 **** 0.06
2844 H 111.64898213032973 17.51760408619691 10.36164137918481 H 0.0 **** 0.06
2845 H 112.33902276257902 19.15121784841159 10.201839770438092 H 0.0 **** 0.06
2846 C 91.54390347515573 39.24509859823628 19.72143843032501 C 0.0 **** -0.24
2847 H 92.19292193494124 38.9009773131889 18.915884100751896 H 0.0 **** 0.06
2848 H 90.66522252531242 38.60120385984398 19.777976814124173 H 0.0 **** 0.06
2849 H 91.23186302353594 40.26998788384037 19.524647046105997 H 0.0 **** 0.06
2850 H 92.08522301563818 39.20465293661782 20.66620108012296 H 0.0 **** 0.06
2851 C 18.516681946456146 37.690902127913034 72.7690605113299 C 0.0 **** -0.24
2852 H 17.794666809666865 37.157566706457715 73.388267815316 H 0.0 **** 0.06
2853 H 19.526789749794546 37.39298743994479 73.05100423304482 H 0.0 **** 0.06
2854 H 18.39827608784387 38.763981968298765 72.91667443916988 H 0.0 **** 0.06
2855 H 18.344544622892982 37.446851907609016 71.72054993447492 H 0.0 **** 0.06
2856 C 51.900563582119275 150.66016586209724 50.20089682488498 C 0.0 **** -0.24
2857 H 51.64479069362977 149.6011232000438 50.19824661024725 H 0.0 **** 0.06
2858 H 51.979104256939365 151.01210143926548 51.22975002621757 H 0.0 **** 0.06
2859 H 51.12393118501177 151.22300064320507 49.68227043081214 H 0.0 **** 0.06
2860 H 52.853569969010834 150.80459944405766 49.69283292430879 H 0.0 **** 0.06
2861 C 145.7598873048828 83.65363213144042 134.47066002958925 C 0.0 **** -0.24
2862 H 146.63561626181877 83.2852025260965 133.9352390374368 H 0.0 **** 0.06
2863 H 145.40322584847897 84.56833394756785 133.99582067442807 H 0.0 **** 0.06
2864 H 146.02888427474903 83.86233944204582 135.50621064581654 H 0.0 **** 0.06
2865 H 144.97393838670152 82.89922420957222 134.444275283451 H 0.0 **** 0.06
2866 C 64.25204382796827 119.04380868578747 59.15914177833179 C 0.0 **** -0.24
2867 H 65.26279347366754 118.83710556962305 59.509531750933604 H 0.0 **** 0.06
2868 H 63.690288715974944 119.54993188447477 59.94468917142609 H 0.0 **** 0.06
2869 H 63.757224158414786 118.10645330456077 58.90466668574919 H 0.0 **** 0.06
2870 H 64.29749790924217 119.68184150548791 58.27599045461076 H 0.0 **** 0.06
2871 C 85.49774728509317 56.21084978869581 12.239410460677163 C 0.0 **** -0.24
2872 H 84.50105894239027 55.78576422753997 12.126256740693293 H 0.0 **** 0.06
2873 H 85.41854103592743 57.289440376789415 12.382098761328564 H 0.0 **** 0.06
2874 H 86.08401862744245 56.00543755008158 11.343240311503052 H 0.0 **** 0.06
2875 H 85.98789449430672 55.76507790061564 13.104218697881947 H 0.0 **** 0.06
2876 C 42.28551858812477 126.24824011864607 159.72585678033815 C 0.0 **** -0.24
2877 H 42.78253893051678 127.15589913317183 159.38348552376195 H 0.0 **** 0.06
2878 H 41.219558065749254 126.44124479083635 159.8447581424581 H 0.0 **** 0.06
2879 H 42.708608791588006 125.94140085825575 160.68165565775004 H 0.0 **** 0.06
2880 H 42.432219305727074 125.45552457600755 158.9915161353405 H 0.0 **** 0.06
2881 C 65.49165319345762 91.73874476200558 80.3991462628378 C 0.0 **** -0.24
2882 H 65.46396364163886 91.4094106403625 81.43758378886986 H 0.0 **** 0.06
2883 H 65.47774388714593 92.82860713015918 80.3626391555913 H 0.0 **** 0.06
2884 H 64.62245419756545 91.3457060317387 79.87091821317489 H 0.0 **** 0.06
2885 H 66.4024510474802 91.37125524576186 79.92544389371523 H 0.0 **** 0.06
2886 C 54.46861037533641 108.35927478470981 168.01212978594072 C 0.0 **** -0.24
2887 H 54.50418385497264 107.91239195933557 167.01868051818343 H 0.0 **** 0.06
2888 H 53.44015244186107 108.36480556138923 168.3713968718725 H 0.0 **** 0.06
2889 H 54.841951388316005 109.38246454251643 167.96321752709676 H 0.0 **** 0.06
2890 H 55.08998267183375 107.77810023674067 168.6947598818212 H 0.0 **** 0.06
2891 C 34.49143143390393 51.751221298203276 16.17994417869791 C 0.0 **** -0.24
2892 H 33.570095731094625 51.67318059791906 16.757851074187265 H 0.0 **** 0.06
2893 H 34.757534665572734 52.801717292460495 16.063177668332116 H 0.0 **** 0.06
2894 H 34.342143750750665 51.3020990479519 15.197950501131736 H 0.0 **** 0.06
2895 H 35.292747855859375 51.22768045836028 16.70163007376295 H 0.0 **** 0.06
2896 C 102.54181777073609 160.47307780558032 45.83242585986653 C 0.0 **** -0.24
2897 H 103.04362340437828 159.78075986617677 45.156673573806415 H 0.0 **** 0.06
2898 H 102.20264690072042 159.93426230318607 46.71812739451451 H 0.0 **** 0.06
2899 H 101.68508305215875 160.9175707452129 45.32680761561531 H 0.0 **** 0.06
2900 H 103.23678472423074 161.25832591096207 46.12865129826616 H 0.0 **** 0.06
2901 C 118.73363359958404 170.39967793577884 14.900616545316623 C 0.0 **** -0.24
2902 H 119.7807535248069 170.16495460480607 15.090677044278053 H 0.0 **** 0.06
2903 H 118.47558188839113 170.11255489519354 13.880765140671926 H 0.0 **** 0.06
2904 H 118.57138224494744 171.4699428479092 15.030052680893114 H 0.0 **** 0.06
2905 H 118.1050080403601 169.8499861471537 15.602023746851465 H 0.0 **** 0.06
2906 C 107.75166855977929 158.3746449008442 96.93596973040962 C 0.0 **** -0.24
2907 H 107.26357613570187 158.35041322592167 95.96137144795236 H 0.0 **** 0.06
2908 H 108.28962319186311 159.3157974421291 97.04945933880936 H 0.0 **** 0.06
2909 H 108.45162765275404 157.54292714624916 97.01202900036347 H 0.0 **** 0.06
2910 H 106.99971136491979 158.28890371970834 97.71994740400339 H 0.0 **** 0.06
2911 C 73.7710438978805 54.57425631275768 63.20805372954061 C 0.0 **** -0.24
2912 H 73.90640786184304 54.91865902005053 64.2327051446207 H 0.0 **** 0.06
2913 H 73.49442046131459 53.519532507369775 63.21256796355664 H 0.0 **** 0.06
2914 H 74.70184460141107 54.70275334821241 62.65560667586669 H 0.0 **** 0.06
2915 H 72.98213924736449 55.1549505363503 62.730770966616774 H 0.0 **** 0.06
2916 C 27.568821494308636 115.05885962566552 39.29938015234728 C 0.0 **** -0.24
2917 H 27.129607676927414 116.04937040852425 39.42382626886524 H 0.0 **** 0.06
2918 H 26.78650243470087 114.34505053648098 39.03991208179923 H 0.0 **** 0.06
2919 H 28.046996252262517 114.75384041826271 40.22951526817914 H 0.0 **** 0.06
2920 H 28.31163536805542 115.0906737241423 38.5021508225457 H 0.0 **** 0.06
2921 C 162.61845336678846 124.76181388744806 93.54749163865375 C 0.0 **** -0.24
2922 H 162.04308509487956 124.08308955302516 94.17828150596489 H 0.0 **** 0.06
2923 H 162.6782248624906 125.73840143298787 94.02668500906805 H 0.0 **** 0.06
2924 H 162.12817848934327 124.8596405081662 92.5790957116462 H 0.0 **** 0.06
2925 H 163.62336973586278 124.36303686549002 93.40715213549404 H 0.0 **** 0.06
2926 C 158.76132789870596 78.51241429969083 117.1472235637047 C 0.0 **** -0.24
2927 H 158.39632046430955 77.4928862197175 117.2721005289988 H 0.0 **** 0.06
2928 H 157.9972692588577 79.11313879528213 116.65447754172118 H 0.0 **** 0.06
2929 H 159.66528441876366 78.50253442433979 116.53847223939692 H 0.0 **** 0.06
2930 H 158.98508910083603 78.93947372501744 118.12458191396757 H 0.0 **** 0.06
2931 C 52.11507391360071 142.16707755298967 145.93703132465308 C 0.0 **** -0.24
2932 H 52.74745975798723 142.70108767792215 145.2279957069702 H 0.0 **** 0.06
2933 H 51.363358962205794 141.59462382149366 145.39424911943993 H 0.0 **** 0.06
2934 H 51.62158827015493 142.88397185159218 146.59417111401348 H 0.0 **** 0.06
2935 H 52.72778084994103 141.49100101778737 146.53230258919172 H 0.0 **** 0.06
2936 C 140.27503210458383 158.07759113017372 137.85601546714676 C 0.0 **** -0.24
2937 H 140.01030075728477 158.61163700603012 138.76908420816693 H 0.0 **** 0.06
2938 H 141.26034537817804 157.62489025034156 137.97298507548982 H 0.0 **** 0.06
2939 H 140.29186769294438 158.77555658003192 137.01940626454018 H 0.0 **** 0.06
2940 H 139.53707031919268 157.29857441141587 137.6649564810035 H 0.0 **** 0.06
2941 C 27.042779810538008 162.15167615605057 22.341626648585446 C 0.0 **** -0.24
2942 H 26.01264031262204 162.09139525051236 21.990469969723563 H 0.0 **** 0.06
2943 H 27.067091757450953 162.6456507176649 23.31260668299865 H 0.0 **** 0.06
2944 H 27.637925408821246 162.72124034887145 21.627712412179505 H 0.0 **** 0.06
2945 H 27.452716553928596 161.14503610171326 22.4356421331658 H 0.0 **** 0.06
2946 C 106.09042267626347 168.14427180068952 148.2550651402815 C 0.0 **** -0.24
2947 H 106.58976245492445 168.7032328873073 149.04568036852663 H 0.0 **** 0.06
2948 H 105.03855198695737 168.42898273123595 148.21731667301924 H 0.0 **** 0.06
2949 H 106.17104049518227 167.07646328027917 148.4600747349994 H 0.0 **** 0.06
2950 H 106.56225362370941 168.36706163057949 147.29827497378363 H 0.0 **** 0.06
2951 C 3.138350568711914 92.78995468696417 148.0339205185596 C 0.0 **** -0.24
2952 H 3.4019346361524683 93.09346153134521 149.04747428706852 H 0.0 **** 0.06
2953 H 2.0531638288703675 92.73718826371584 147.94179206689654 H 0.0 **** 0.06
2954 H 3.569468536352069 91.8109121151237 147.82437784771784 H 0.0 **** 0.06
2955 H 3.528718935265452 93.51918938555428 147.32349283085853 H 0.0 **** 0.06
2956 C 164.43316716265127 122.36640609997295 16.948306560535343 C 0.0 **** -0.24
2957 H 165.1401843027357 122.17004163774371 17.754777246215554 H 0.0 **** 0.06
2958 H 163.45013075360822 122.57392439023653 17.37045552670753 H 0.0 **** 0.06
2959 H 164.37342802034954 121.4939064230361 16.298139875782198 H 0.0 **** 0.06
2960 H 164.77144225197685 123.22692687357332 16.370846470929706 H 0.0 **** 0.06
2961 C 99.70924296241009 26.11519298393094 141.94165963185867 C 0.0 **** -0.24
2962 H 100.5080715914066 26.857099475376288 141.9575273369581 H 0.0 **** 0.06
2963 H 100.10836345810094 25.159400065402423 141.60292389826662 H 0.0 **** 0.06
2964 H 98.92288324696383 26.44342240640833 141.26065810599397 H 0.0 **** 0.06
2965 H 99.29807739317678 26.002820375491723 142.94456064372628 H 0.0 **** 0.06
2966 C 105.51947939355057 56.385960746865976 2.451919090448314 C 0.0 **** -0.24
2967 H 106.11012366618911 55.484859713002265 2.289859141086936 H 0.0 **** 0.06
2968 H 104.6368032510075 56.36254968390597 1.812305180958333 H 0.0 **** 0.06
2969 H 106.12072037784708 57.26222993725793 2.2110669600413075 H 0.0 **** 0.06
2970 H 105.20954028722895 56.433772534509956 3.496514231231572 H 0.0 **** 0.06
2971 C 58.67214203453477 85.41610552066984 48.84641581743844 C 0.0 **** -0.24
2972 H 57.616212707660964 85.6802437182589 48.90409123398584 H 0.0 **** 0.06
2973 H 58.819458144051055 84.42012474236901 49.26551899370783 H 0.0 **** 0.06
2974 H 59.25955025003947 86.13923116635497 49.4123134023685 H 0.0 **** 0.06
2975 H 58.99232056541706 85.42281802294337 47.8047033690501 H 0.0 **** 0.06
2976 C 9.893166883430013 107.39379638593465 124.72106346228219 C 0.0 **** -0.24
2977 H 10.867483037997147 106.95167510162685 124.51491797391225 H 0.0 **** 0.06
2978 H 9.311282901118204 106.71612830982218 125.34608602603785 H 0.0 **** 0.06
2979 H 9.365800183095843 107.56512380005637 123.78223947094847 H 0.0 **** 0.06
2980 H 10.028333475078341 108.34288861124497 125.23976580973829 H 0.0 **** 0.06
2981 C 51.214195091449966 112.70133874394409 157.7448603927276 C 0.0 **** -0.24
2982 H 52.19791951284796 112.96659452704677 158.13343708298623 H 0.0 **** 0.06
2983 H 51.32752089777118 112.18569234608435 156.79071351319578 H 0.0 **** 0.06
2984 H 50.62519494507944 113.60733165439356 157.60115629750035 H 0.0 **** 0.06
2985 H 50.70815723029378 112.0464360376015 158.45481415077268 H 0.0 **** 0.06
2986 C 138.75663974071296 147.10870834267246 125.83278662071837 C 0.0 **** -0.24
2987 H 139.23995734591796 146.60961687419422 124.99372408143302 H 0.0 **** 0.06
2988 H 139.18931976990103 148.10087788009304 125.96415179034125 H 0.0 **** 0.06
2989 H 138.90900499239427 146.52246695930282 126.739909601352 H 0.0 **** 0.06
2990 H 137.68873088863182 147.2002707234774 125.63585723010146 H 0.0 **** 0.06
2991 C 162.85522372813875 53.486866845039856 122.47935672580476 C 0.0 **** -0.24
2992 H 162.37289248850325 53.22888425045369 121.53595184339787 H 0.0 **** 0.06
2993 H 163.93661743860812 53.4918944382579 122.34398116732675 H 0.0 **** 0.06
2994 H 162.58676035688603 52.75087722026481 123.2368584488699 H 0.0 **** 0.06
2995 H 162.52388038493459 54.475002230496955 122.7978441209404 H 0.0 **** 0.06
2996 C 110.06743622596608 137.36182273093974 160.34776447704849 C 0.0 **** -0.24
2997 H 109.54432022209005 138.0750161120015 160.985196078877 H 0.0 **** 0.06
2998 H 111.09842034857758 137.6888743609227 160.2080211693559 H 0.0 **** 0.06
2999 H 109.56875692742307 137.30636106130368 159.38051832242755 H 0.0 **** 0.06
3000 H 110.05817941518893 136.3790011007191 160.81980172169386 H 0.0 **** 0.06
3001 C 149.04596610563064 2.0902321807849376 67.76635119542638 C 0.0 **** -0.24
3002 H 148.03176932301534 2.0725810994688914 67.36914914276186 H 0.0 **** 0.06
3003 H 149.2544148082582 3.074164297246483 68.1875161718299 H 0.0 **** 0.06
3004 H 149.7540104876519 1.8803189609050435 66.96492261696459 H 0.0 **** 0.06
3005 H 149.14450507469186 1.3331560201506534 68.54471162660212 H 0.0 **** 0.06
3006 C 128.7073015211193 22.602970924122218 134.8125025394828 C 0.0 **** -0.24
3007 H 128.89774085760115 22.212916230163508 133.8120359410824 H 0.0 **** 0.06
3008 H 129.27299382014218 22.023047657939877 135.54137934566916 H 0.0 **** 0.06
3009 H 127.64307098052421 22.527445563930527 135.03459361953793 H 0.0 **** 0.06
3010 H 129.0152265617851 23.647689718843615 134.85928933088655 H 0.0 **** 0.06
3011 C 104.25896685844984 64.69248174236391 45.05233182030966 C 0.0 **** -0.24
3012 H 103.6096427011395 65.46042076893953 45.47361794119678 H 0.0 **** 0.06
3013 H 104.8933420807856 65.1350448972328 44.283971792625465 H 0.0 **** 0.06
3014 H 103.6490664300307 63.903778735920085 44.611459697867076 H 0.0 **** 0.06
3015 H 104.88221526005418 64.27119929281282 45.84135952782225 H 0.0 **** 0.06
3016 C 5.143615609484613 142.7813641307602 20.86540215345601 C 0.0 **** -0.24
3017 H 5.334887197041269 142.48295435207584 19.83447636647707 H 0.0 **** 0.06
3018 H 5.396638208842688 141.95981195707142 21.53517133755181 H 0.0 **** 0.06
3019 H 4.089666750418587 143.0342844453852 20.98005509456815 H 0.0 **** 0.06
3020 H 5.753878923920439 143.651074442938 21.109354713032864 H 0.0 **** 0.06
3021 C 110.52585357203148 55.55572960954943 136.6665203424686 C 0.0 **** -0.24
3022 H 111.23987871457896 55.01104998540863 136.04823609805695 H 0.0 **** 0.06
3023 H 110.12105333763563 54.88732173867423 137.42758073565722 H 0.0 **** 0.06
3024 H 109.7149289296784 55.92989403110582 136.0418088983824 H 0.0 **** 0.06
3025 H 111.02912641237148 56.393617847429866 137.14912985148973 H 0.0 **** 0.06
3026 C 12.970675750089015 25.94811322501451 57.72854044659009 C 0.0 **** -0.24
3027 H 13.261488305760793 25.614970361111602 58.7248366256357 H 0.0 **** 0.06
3028 H 12.255797215623915 26.76685256030342 57.81419547644812 H 0.0 **** 0.06
3029 H 12.513974858516775 25.119889937690886 57.18782736795363 H 0.0 **** 0.06
3030 H 13.853970458956155 26.291776434248646 57.18965524738029 H 0.0 **** 0.06
3031 C 44.79606708822503 64.90265805464178 130.46403634155257 C 0.0 **** -0.24
3032 H 44.94772650713345 64.62848476583346 129.41994265850263 H 0.0 **** 0.06
3033 H 43.761290469016615 65.20961946606675 130.6120707690606 H 0.0 **** 0.06
3034 H 45.46086214398899 65.7279461745273 130.72236614061424 H 0.0 **** 0.06
3035 H 45.01642020579003 64.04596205543163 131.10004233396384 H 0.0 **** 0.06
3036 C 127.28688142752873 121.68849449420486 94.76608890332346 C 0.0 **** -0.24
3037 H 127.52772892937153 121.18110522787444 95.7003799742613 H 0.0 **** 0.06
3038 H 128.20976337682228 121.98667034469543 94.26702748526418 H 0.0 **** 0.06
3039 H 126.68531521952806 122.57246664499954 94.9775611625538 H 0.0 **** 0.06
3040 H 126.72591766185761 121.01274270615852 94.120991746345 H 0.0 **** 0.06
3041 C 74.51525705776193 133.7011716876455 59.875126551874075 C 0.0 **** -0.24
3042 H 75.54469289083225 134.01661167363528 59.70690452562911 H 0.0 **** 0.06
3043 H 74.22087293858453 132.99201347239847 59.10162296765924 H 0.0 **** 0.06
3044 H 73.85835617256049 134.57063376480716 59.841360844980414 H 0.0 **** 0.06
3045 H 74.43744856815417 133.2253723452758 60.8530427180697 H 0.0 **** 0.06
3046 C 61.322352587991745 131.46684418639583 54.91585890516967 C 0.0 **** -0.24
3047 H 62.38512931015269 131.34104063983756 54.70962048824168 H 0.0 **** 0.06
3048 H 60.74895525709245 130.76947371589932 54.30539260488365 H 0.0 **** 0.06
3049 H 61.02503200686506 132.4885521212404 54.67844035420427 H 0.0 **** 0.06
3050 H 61.13119791503203 131.2697601025794 55.971424621641916 H 0.0 **** 0.06
3051 C 153.09069533554313 85.78656944993064 126.87939644932237 C 0.0 **** -0.24
3052 H 153.81187579636688 86.60418496926063 126.8873843196935 H 0.0 **** 0.06
3053 H 153.15482937626686 85.25522399525583 125.9303348120788 H 0.0 **** 0.06
3054 H 152.08477148651772 86.1887904785299 127.00463891010904 H 0.0 **** 0.06
3055 H 153.31216641973674 85.10053459956275 127.69702346140676 H 0.0 **** 0.06
3056 C 155.9376715834566 46.861369726045055 166.08065850561354 C 0.0 **** -0.24
3057 H 155.9271799563472 45.78222758475431 165.9268392750384 H 0.0 **** 0.06
3058 H 156.96895094422177 47.213209613658734 166.11752006952653 H 0.0 **** 0.06
3059 H 155.43924817553554 47.098415008536705 167.02038336653754 H 0.0 **** 0.06
3060 H 155.41551621215766 47.35048850384126 165.25870427489096 H 0.0 **** 0.06
3061 C 61.226458225635895 161.62054801277273 121.44047280145452 C 0.0 **** -0.24
3062 H 61.662982466677136 160.6237015215408 121.38498565439784 H 0.0 **** 0.06
3063 H 60.685127428270505 161.8314587196365 120.51824895430781 H 0.0 **** 0.06
3064 H 62.01949537104389 162.35728337826046 121.5733310220399 H 0.0 **** 0.06
3065 H 60.539510732275176 161.66964569524626 122.2847397709591 H 0.0 **** 0.06
3066 C 8.7457416551199 132.0285958198538 38.44186060802781 C 0.0 **** -0.24
3067 H 7.808256490567487 132.5850230908556 38.421924077082124 H 0.0 **** 0.06
3068 H 9.471290301219142 132.51731158360042 37.7916335336776 H 0.0 **** 0.06
3069 H 8.571072135019051 131.0112388027263 38.09290012172295 H 0.0 **** 0.06
3070 H 9.130629761961302 132.0022398943098 39.461045419815775 H 0.0 **** 0.06
3071 C 155.88530950062255 137.45112483100021 90.15112640750601 C 0.0 **** -0.24
3072 H 156.2293851920569 136.4168665437908 90.14767697595865 H 0.0 **** 0.06
3073 H 156.4024755756623 138.00275213760932 90.93653188544137 H 0.0 **** 0.06
3074 H 154.81167958448953 137.47587432684878 90.33484472764316 H 0.0 **** 0.06
3075 H 156.09936474836636 137.90756945447515 89.18505662562212 H 0.0 **** 0.06
3076 C 60.217316156387085 24.766346464815093 61.486969850654106 C 0.0 **** -0.24
3077 H 59.845890893844455 23.782095672746642 61.77365584580983 H 0.0 **** 0.06
3078 H 60.0090480639098 25.48016927142492 62.284290114037475 H 0.0 **** 0.06
3079 H 59.72200137689674 25.089327007452866 60.57143284071141 H 0.0 **** 0.06
3080 H 61.292893701542084 24.71297243358657 61.318531904393296 H 0.0 **** 0.06
3081 C 0.7141883011097434 110.77743865281167 13.626440193457597 C 0.0 **** -0.24
3082 H 1.482749694761793 111.54174170742812 13.740801047466611 H 0.0 **** 0.06
3083 H -0.10420762519680693 110.98061093009784 14.317002510463965 H 0.0 **** 0.06
3084 H 1.1403964344668793 109.79829064016764 13.844483713236343 H 0.0 **** 0.06
3085 H 0.3392281334193399 110.7911108426485 12.603539366829487 H 0.0 **** 0.06
3086 C 164.27777145384795 35.24275005147372 77.51070555710103 C 0.0 **** -0.24
3087 H 164.91436593276305 36.11477898396963 77.66453088059144 H 0.0 **** 0.06
3088 H 164.41382587345961 34.54380314284046 78.33553316248552 H 0.0 **** 0.06
3089 H 164.5482509304046 34.75716252179376 76.57295090081618 H 0.0 **** 0.06
3090 H 163.23534884483558 35.55785431675919 77.46848494005225 H 0.0 **** 0.06
3091 C 154.20561859123885 106.70966982231101 111.71583351247801 C 0.0 **** -0.24
3092 H 154.09580924663481 106.66875036959442 110.63214689198642 H 0.0 **** 0.06
3093 H 154.34817653686517 107.7457521887003 112.02667883057791 H 0.0 **** 0.06
3094 H 155.07007225498785 106.11737168763881 112.01613664740768 H 0.0 **** 0.06
3095 H 153.30811775515272 106.30902020905404 112.1873696502546 H 0.0 **** 0.06
3096 C 21.389491323347308 25.029424605634574 36.39054596030108 C 0.0 **** -0.24
3097 H 20.5870751523112 25.438407070241055 37.0048910016674 H 0.0 **** 0.06
3098 H 22.067446853664663 25.83150184193744 36.09822148409252 H 0.0 **** 0.06
3099 H 20.964668897666314 24.568516104617828 35.49789457761682 H 0.0 **** 0.06
3100 H 21.93666660254604 24.28001994242379 36.96116931083921 H 0.0 **** 0.06
3101 C 159.99445398421105 130.8983638524159 62.016417320503265 C 0.0 **** -0.24
3102 H 159.34070498840705 130.03408885177095 62.13191687677565 H 0.0 **** 0.06
3103 H 160.04900049621284 131.17267704768068 60.96251497343599 H 0.0 **** 0.06
3104 H 160.99142053756765 130.65177267623758 62.37993573078796 H 0.0 **** 0.06
3105 H 159.59493877331604 131.73488326872516 62.58958923350414 H 0.0 **** 0.06
3106 C 110.89421106293167 31.849256568632313 54.51192747062484 C 0.0 **** -0.24
3107 H 110.20764212522707 31.519062286623694 55.291249615203526 H 0.0 **** 0.06
3108 H 110.39280512142565 31.80475075354184 53.54402946035913 H 0.0 **** 0.06
3109 H 111.76849671411767 31.1987194091883 54.49955092631859 H 0.0 **** 0.06
3110 H 111.20624256398506 32.874088580770035 54.71258356650003 H 0.0 **** 0.06
3111 C 107.4972755449806 75.12096704739281 56.636571424714475 C 0.0 **** -0.24
3112 H 107.79053043597474 74.53928886945391 55.76369102053491 H 0.0 **** 0.06
3113 H 107.27525405941995 76.14481454811562 56.332405359373524 H 0.0 **** 0.06
3114 H 108.31101005949611 75.12530691473978 57.36168485502483 H 0.0 **** 0.06
3115 H 106.61060694845563 74.67622073518419 57.088515786788406 H 0.0 **** 0.06
3116 C 3.8634127547736057 156.8176621116462 146.50170425252168 C 0.0 **** -0.24
3117 H 2.8177743218106457 157.12339645314643 146.5523105864777 H 0.0 **** 0.06
3118 H 3.997759198627932 155.8890071568806 147.0554579566286 H 0.0 **** 0.06
3119 H 4.490207107752042 157.59602327544525 146.93794380651846 H 0.0 **** 0.06
3120 H 4.146143982124414 156.66492489105212 145.45985080941665 H 0.0 **** 0.06
3121 C 167.2582262180965 55.405488349231746 50.41502167467084 C 0.0 **** -0.24
3122 H 167.2665582961319 54.66021245965578 49.619638992601594 H 0.0 **** 0.06
3123 H 166.6807303387956 55.02895081942941 51.259663728922035 H 0.0 **** 0.06
3124 H 166.804024030729 56.32516480437363 50.04509898077339 H 0.0 **** 0.06
3125 H 168.28019841466687 55.608710811065805 50.7339881739904 H 0.0 **** 0.06
3126 C 2.5446338681447003 137.1912474832351 78.19061894161224 C 0.0 **** -0.24
3127 H 2.286001614954671 136.69971226264732 77.25275665480709 H 0.0 **** 0.06
3128 H 3.1024798845628254 138.10410609604608 77.98063281392818 H 0.0 **** 0.06
3129 H 3.1573859786824414 136.5216535425618 78.79461977408437 H 0.0 **** 0.06
3130 H 1.6334264287679332 137.43917277880834 78.73391370751125 H 0.0 **** 0.06
3131 C 119.52935401261581 18.89639721118332 19.83548182593234 C 0.0 **** -0.24
3132 H 119.22644751254143 18.054490018391448 20.45829650614793 H 0.0 **** 0.06
3133 H 119.87155763725258 18.527143985193987 18.867646108058516 H 0.0 **** 0.06
3134 H 120.33859897289284 19.437686275193265 20.32501212320932 H 0.0 **** 0.06
3135 H 118.68035785831105 19.56402266318161 19.690106593307704 H 0.0 **** 0.06
3136 C 34.031683518420465 50.61548500043453 143.51890158723342 C 0.0 **** -0.24
3137 H 33.84797793801347 50.05214006699177 144.4330530482729 H 0.0 **** 0.06
3138 H 34.126631902899575 49.92477799735755 142.67994457013745 H 0.0 **** 0.06
3139 H 34.953377203030996 51.187794095680346 143.62371205704713 H 0.0 **** 0.06
3140 H 33.199187035796314 51.295619432992794 143.33710235364336 H 0.0 **** 0.06
3141 C 49.00884274491327 62.815721840705336 69.51208333127192 C 0.0 **** -0.24
3142 H 48.31469281432514 62.63608070440479 68.69112771706813 H 0.0 **** 0.06
3143 H 49.18801219301538 61.88300488027977 70.04669679840788 H 0.0 **** 0.06
3144 H 48.580603927299464 63.54962598873833 70.19583360816432 H 0.0 **** 0.06
3145 H 49.949983554241626 63.194999996847756 69.11470161835018 H 0.0 **** 0.06
3146 C 61.391290043605096 15.088855657560316 123.32721612621305 C 0.0 **** -0.24
3147 H 62.142872461917534 14.520721421009682 123.87598890465728 H 0.0 **** 0.06
3148 H 61.70579391545546 15.200202619251002 122.28939564002832 H 0.0 **** 0.06
3149 H 61.27619841332515 16.072384899445638 123.78102036556152 H 0.0 **** 0.06
3150 H 60.43836474666276 14.559102621772922 123.36291398273255 H 0.0 **** 0.06
3151 C 133.06089858337123 171.9803951851825 133.1059853240794 C 0.0 **** -0.24
3152 H 132.90989509074382 171.60748705954634 132.0935389666044 H 0.0 **** 0.06
3153 H 133.97111798994894 172.58002688173596 133.14018586225333 H 0.0 **** 0.06
3154 H 133.15342166244625 171.13990729373947 133.7937467407244 H 0.0 **** 0.06
3155 H 132.20901255792754 172.59551069490345 133.39607892615965 H 0.0 **** 0.06
3156 C 136.67203060881386 121.99035331485874 85.51317486690499 C 0.0 **** -0.24
3157 H 137.41076563218516 122.30865179957954 84.77659434411493 H 0.0 **** 0.06
3158 H 136.82257346351798 122.54286227953054 86.44123785473084 H 0.0 **** 0.06
3159 H 136.78624057360616 120.92283415688945 85.70310415220706 H 0.0 **** 0.06
3160 H 135.67124585851266 122.18675285905903 85.13049974988775 H 0.0 **** 0.06
3161 C 160.87289992435387 49.3353319095271 92.02038365827494 C 0.0 **** -0.24
3162 H 160.91889932967982 49.74108970435714 93.03126043925207 H 0.0 **** 0.06
3163 H 159.83558626453825 49.12759237245044 91.75962358675244 H 0.0 **** 0.06
3164 H 161.450813114254 48.4116548481434 91.97355149785608 H 0.0 **** 0.06
3165 H 161.28771550306553 50.059561788324416 91.31932567049088 H 0.0 **** 0.06
3166 C 3.7871791953742786 129.96446459553823 35.514875705636484 C 0.0 **** -0.24
3167 H 4.0539413487514935 130.74618549659755 36.22611165206689 H 0.0 **** 0.06
3168 H 2.7274644372682246 129.72791981820535 35.61464246926437 H 0.0 **** 0.06
3169 H 4.379348220638747 129.07193394138716 35.718507922578624 H 0.0 **** 0.06
3170 H 3.989089267535803 130.31037373985265 34.50152218912996 H 0.0 **** 0.06
3171 C 42.383306392115344 55.215432361721014 89.53847787251964 C 0.0 **** -0.24
3172 H 42.499822007549255 55.67591105638289 90.5197865301643 H 0.0 **** 0.06
3173 H 42.608691533937986 54.15156412387272 89.60677920754004 H 0.0 **** 0.06
3174 H 43.06715047997011 55.68852766243428 88.83312809440706 H 0.0 **** 0.06
3175 H 41.357567811381045 55.34842395522081 89.19506882284657 H 0.0 **** 0.06
3176 C 98.57596386526865 100.21712915803488 8.619455713436935 C 0.0 **** -0.24
3177 H 98.16155196489706 99.37152582543303 9.167753941126591 H 0.0 **** 0.06
3178 H 98.67874158237453 99.95329049535485 7.567372039635757 H 0.0 **** 0.06
3179 H 99.55402643608159 100.47132780982957 9.02884777272115 H 0.0 **** 0.06
3180 H 97.90812375075586 101.07413822661633 8.716657944328887 H 0.0 **** 0.06
3181 C 162.54911484220065 56.193501241284366 114.58601631524877 C 0.0 **** -0.24
3182 H 162.52898352697483 56.032378172757035 113.5082773552308 H 0.0 **** 0.06
3183 H 162.39450284495018 55.24316495037334 115.09818551059362 H 0.0 **** 0.06
3184 H 161.75772368292903 56.88900240642346 114.86406186150276 H 0.0 **** 0.06
3185 H 163.51514204772587 56.60956716356321 114.87255214276755 H 0.0 **** 0.06
3186 C 85.26741302152692 153.78544413373567 157.65941843572938 C 0.0 **** -0.24
3187 H 85.03751358518895 153.5618720373867 158.7016511254053 H 0.0 **** 0.06
3188 H 86.2219573754586 154.3082823391889 157.60217803374377 H 0.0 **** 0.06
3189 H 84.48186594498094 154.41579304229657 157.2428776523571 H 0.0 **** 0.06
3190 H 85.32572906358479 152.85627131629047 157.09363467379387 H 0.0 **** 0.06
3191 C 46.24226602537779 128.1520534392874 66.96513646265672 C 0.0 **** -0.24
3192 H 46.17531603924931 127.79333652294292 65.93783024252778 H 0.0 **** 0.06
3193 H 47.115477696789284 127.71189460088203 67.4466131055642 H 0.0 **** 0.06
3194 H 45.34248551686194 127.86356249650137 67.50949500895834 H 0.0 **** 0.06
3195 H 46.33448413296759 129.2378447044369 66.9656984879267 H 0.0 **** 0.06
3196 C 41.36741675401632 19.056143922347808 14.033371302590773 C 0.0 **** -0.24
3197 H 41.34301408184005 20.06064354652237 13.610738834253269 H 0.0 **** 0.06
3198 H 40.856557107042434 18.366033003148615 13.361353039526676 H 0.0 **** 0.06
3199 H 40.8670649532327 19.05707588169043 15.002012312628672 H 0.0 **** 0.06
3200 H 42.40229529424687 18.73981476177454 14.160045789828246 H 0.0 **** 0.06
3201 C 62.89528134381413 97.08141490412234 121.68813926810861 C 0.0 **** -0.24
3202 H 63.620309810685185 97.8611214342574 121.45442440400109 H 0.0 **** 0.06
3203 H 62.56412870633487 96.60428402126777 120.76543766257029 H 0.0 **** 0.06
3204 H 62.03841246396583 97.52304922321414 122.19780686739978 H 0.0 **** 0.06
3205 H 63.3584779799735 96.33733456473456 122.33628162530209 H 0.0 **** 0.06
3206 C 36.70364499382845 165.2192325842916 104.57919754430498 C 0.0 **** -0.24
3207 H 37.72165272620498 165.3597079240215 104.21499686077766 H 0.0 **** 0.06
3208 H 36.24438023083087 166.192984216848 104.75427143464643 H 0.0 **** 0.06
3209 H 36.725534408684325 164.65463233749875 105.51057209892602 H 0.0 **** 0.06
3210 H 36.12496786130146 164.6718680071063 103.83493482904731 H 0.0 **** 0.06
3211 C 165.49919130992777 3.772307496382325 153.079776484844 C 0.0 **** -0.24
3212 H 166.53789927189538 4.021788566068608 153.29815041024042 H 0.0 **** 0.06
3213 H 165.25955002021138 4.075068210747759 152.06021422534616 H 0.0 **** 0.06
3214 H 164.84664438727617 4.297213702948085 153.77795281814798 H 0.0 **** 0.06
3215 H 165.3536748050564 2.6972437907871267 153.18359435383903 H 0.0 **** 0.06
3216 C 124.35866461112053 17.15806148642463 2.8949471989961353 C 0.0 **** -0.24
3217 H 123.572150498285 17.666650421930626 2.3363363650273357 H 0.0 **** 0.06
3218 H 124.95258133472683 17.89404601935763 3.4371435524284095 H 0.0 **** 0.06
3219 H 124.9992481630974 16.610672635566175 2.204568822987028 H 0.0 **** 0.06
3220 H 123.90817357554747 16.461971149000192 3.602976346144999 H 0.0 **** 0.06
3221 C 5.308190581688336 70.84376230559293 69.83997904458639 C 0.0 **** -0.24
3222 H 6.058468165763713 71.60105431511121 69.61155059252604 H 0.0 **** 0.06
3223 H 4.644287005211709 71.21336789681472 70.62108781836227 H 0.0 **** 0.06
3224 H 5.80303194143508 69.93419285309594 70.18198877279686 H 0.0 **** 0.06
3225 H 4.728448843903806 70.62661590056646 68.94249692291362 H 0.0 **** 0.06
3226 C 153.02955416098735 159.96828194976976 144.48323957105424 C 0.0 **** -0.24
3227 H 153.88559367035265 159.73086728032877 143.85165282540163 H 0.0 **** 0.06
3228 H 153.19245526493165 160.93063045251796 144.96914778556157 H 0.0 **** 0.06
3229 H 152.91104218423283 159.19333301468492 145.24015120905415 H 0.0 **** 0.06
3230 H 152.12888520160698 160.01844385175323 143.87002636158456 H 0.0 **** 0.06
3231 C 1.0147998657096764 162.79402909516986 86.55661583693745 C 0.0 **** -0.24
3232 H 1.3018922455350435 163.32491939072102 85.64869146879852 H 0.0 **** 0.06
3233 H 0.06125218447647285 163.18071941526742 86.9162150593286 H 0.0 **** 0.06
3234 H 1.7786367902906477 162.9409200318404 87.32053167264151 H 0.0 **** 0.06
3235 H 0.9178374754116589 161.73009795615175 86.33943383272687 H 0.0 **** 0.06
3236 C 70.49706946138477 33.069522407028956 81.4822985891023 C 0.0 **** -0.24
3237 H 71.42736108201075 32.52066835288443 81.3380353023725 H 0.0 **** 0.06
3238 H 70.23769232530873 33.0720883484388 82.54075458183391 H 0.0 **** 0.06
3239 H 69.70003372092708 32.58843608233221 80.9139041762524 H 0.0 **** 0.06
3240 H 70.6227587360633 34.09543822708406 81.13520185869965 H 0.0 **** 0.06
3241 C 104.89300300904168 46.5964363735834 172.47023883508882 C 0.0 **** -0.24
3242 H 103.90878208347115 47.05155024868387 172.58394342344977 H 0.0 **** 0.06
3243 H 104.77790141670164 45.53493913289408 172.24875871471392 H 0.0 **** 0.06
3244 H 105.45743743995803 46.715665862789024 173.39420433377052 H 0.0 **** 0.06
3245 H 105.42617922700288 47.08226072220336 171.65290780403527 H 0.0 **** 0.06
3246 C 38.6058341371309 6.19095507278567 111.5130248453091 C 0.0 **** -0.24
3247 H 39.3805710020754 5.425901374065575 111.56764924023824 H 0.0 **** 0.06
3248 H 37.85541892909498 6.004188333076172 112.27985554874621 H 0.0 **** 0.06
3249 H 38.1365353486696 6.160793933955745 110.52914519428751 H 0.0 **** 0.06
3250 H 39.053591757540175 7.1720737835067325 111.67220519178107 H 0.0 **** 0.06
3251 C 78.06731221664877 41.90067282778213 105.36960936536349 C 0.0 **** -0.24
3252 H 77.17241115977713 41.31814676677374 105.15024966696677 H 0.0 **** 0.06
3253 H 77.91661511958698 42.46334405257309 106.2913710951558 H 0.0 **** 0.06
3254 H 78.259984923597 42.59204019399783 104.54885020687982 H 0.0 **** 0.06
3255 H 78.91790053652143 41.22976194974211 105.48754694582499 H 0.0 **** 0.06
3256 C 18.51800081045019 137.96127993824757 114.62415277468952 C 0.0 **** -0.24
3257 H 17.966281846336045 138.8974835520947 114.70412864444765 H 0.0 **** 0.06
3258 H 17.954795600600278 137.2603882446187 114.00800838424232 H 0.0 **** 0.06
3259 H 18.660172635242986 137.53770585091786 115.61913337350603 H 0.0 **** 0.06
3260 H 19.48946342184672 138.14918572004126 114.16739246008873 H 0.0 **** 0.06
3261 C 124.9201843178503 85.06270832150352 15.11538711433738 C 0.0 **** -0.24
3262 H 123.94373591446438 85.15909116889094 14.640909463878643 H 0.0 **** 0.06
3263 H 124.78972243702896 84.91373059621145 16.187889589116878 H 0.0 **** 0.06
3264 H 125.49861348735072 85.97029555877981 14.942585814877532 H 0.0 **** 0.06
3265 H 125.44836371705622 84.20935401381223 14.690638813891098 H 0.0 **** 0.06
3266 C 101.24351749830183 150.10224202325324 92.58515126154245 C 0.0 **** -0.24
3267 H 101.3052125573393 149.1335143354519 93.08084427881218 H 0.0 **** 0.06
3268 H 102.05416897907841 150.74121698700887 92.9361760086592 H 0.0 **** 0.06
3269 H 100.28590620582094 150.56867744381506 92.81899913619836 H 0.0 **** 0.06
3270 H 101.32804050663401 149.9656587242498 91.50749082246944 H 0.0 **** 0.06
3271 C 20.79850267795402 3.4443936426840764 114.2815326880064 C 0.0 **** -0.24
3272 H 21.09329043968829 4.085850589866112 115.11192256041733 H 0.0 **** 0.06
3273 H 20.028958401818173 3.9428106985887723 113.69231437370092 H 0.0 **** 0.06
3274 H 20.40751214600278 2.503822018331931 114.67032521021423 H 0.0 **** 0.06
3275 H 21.66609175501808 3.2444626523046907 113.65202891409791 H 0.0 **** 0.06
3276 C 28.760726986082048 118.48259034046288 87.9322222624371 C 0.0 **** -0.24
3277 H 28.979623249926178 118.33898175745446 88.99037120696761 H 0.0 **** 0.06
3278 H 28.983756909770037 119.5114375581532 87.65083068013797 H 0.0 **** 0.06
3279 H 27.705816086448777 118.27472662306207 87.74855435384514 H 0.0 **** 0.06
3280 H 29.37311062324862 117.80254979860763 87.33986313612618 H 0.0 **** 0.06
3281 C 117.1795131543372 58.78638757065575 56.89336084397712 C 0.0 **** -0.24
3282 H 116.87039182085388 57.81405128438557 57.27640825866638 H 0.0 **** 0.06
3283 H 117.17407496652007 58.76640886755149 55.80411411866257 H 0.0 **** 0.06
3284 H 118.18456312205214 59.01454745848385 57.24901774180097 H 0.0 **** 0.06
3285 H 116.48780708942098 59.55190955273159 57.24716734935123 H 0.0 **** 0.06
3286 C 158.92172901869554 98.34312195562168 27.575572200493923 C 0.0 **** -0.24
3287 H 159.56533051767198 97.82117061319772 28.283333514174387 H 0.0 **** 0.06
3288 H 159.38909508314157 99.28426481628154 27.285480371716403 H 0.0 **** 0.06
3289 H 157.95776084349643 98.54458399255012 28.042781564699908 H 0.0 **** 0.06
3290 H 158.77408939250412 97.7227083910152 26.692284760720327 H 0.0 **** 0.06
3291 C 62.85968184009886 48.420646052848554 137.6377288625369 C 0.0 **** -0.24
3292 H 62.30897234131663 49.19487681245721 138.17407579086034 H 0.0 **** 0.06
3293 H 63.18796749103279 48.81197735029201 136.67419444914822 H 0.0 **** 0.06
3294 H 62.2118185161022 47.55870650406797 137.47905465079464 H 0.0 **** 0.06
3295 H 63.72795257543487 48.12014461471529 138.2231509048843 H 0.0 **** 0.06
3296 C 102.22775648166422 157.5971049574124 96.62081009858323 C 0.0 **** -0.24
3297 H 102.4955607407318 156.54148135904452 96.6476958859462 H 0.0 **** 0.06
3298 H 101.45609272741049 157.79487705013577 97.36438821656611 H 0.0 **** 0.06
3299 H 101.85164298661957 157.85205019665503 95.62994948611546 H 0.0 **** 0.06
3300 H 103.10815858309442 158.2008353815145 96.84083713612901 H 0.0 **** 0.06
3301 C 134.00432667049387 35.3136737395472 145.20807911924504 C 0.0 **** -0.24
3302 H 134.64204141976273 36.11453671359243 144.8350529064083 H 0.0 **** 0.06
3303 H 132.99479174725602 35.441913008959204 144.8182213254375 H 0.0 **** 0.06
3304 H 133.98100169282938 35.345729854749294 146.29766186247315 H 0.0 **** 0.06
3305 H 134.4016389461893 34.35209941715368 144.88174188941397 H 0.0 **** 0.06
3306 C 33.46162104098414 46.51153637144506 116.95544631959262 C 0.0 **** -0.24
3307 H 32.63537414064979 46.1863403268967 117.58831818763383 H 0.0 **** 0.06
3308 H 33.32112985175303 47.557360428064385 116.6840049314236 H 0.0 **** 0.06
3309 H 33.489300361030644 45.90128168452691 116.05323446469447 H 0.0 **** 0.06
3310 H 34.40042709973835 46.39960219995561 117.49780884471966 H 0.0 **** 0.06
3311 C 145.8317576004889 110.23401449682365 7.794451581759091 C 0.0 **** -0.24
3312 H 145.95358002655928 109.20442292997234 7.457139110745004 H 0.0 **** 0.06
3313 H 146.5675321488623 110.45166967603652 8.569237518574113 H 0.0 **** 0.06
3314 H 144.82766348276914 110.36600713328869 8.198653458226602 H 0.0 **** 0.06
3315 H 145.97700679600467 110.9107614010222 6.953248606920795 H 0.0 **** 0.06
3316 C 68.84061924569335 55.86574723712414 158.84399002941524 C 0.0 **** -0.24
3317 H 67.84409795924667 56.24326444804851 159.07105442343362 H 0.0 **** 0.06
3318 H 69.48725027986387 56.00361331378501 159.7099810264757 H 0.0 **** 0.06
3319 H 69.25018814727912 56.41012634358684 157.99324278039282 H 0.0 **** 0.06
3320 H 68.7795746890711 54.804239292347106 158.60138610107683 H 0.0 **** 0.06
3321 C 53.62938007384898 99.50638948516794 140.94559750081567 C 0.0 **** -0.24
3322 H 52.71696613293747 98.91620730269454 140.8626820897289 H 0.0 **** 0.06
3323 H 54.494881327996154 98.84392211952976 140.92557849387381 H 0.0 **** 0.06
3324 H 53.61849691304086 100.0621970247307 141.88312281661769 H 0.0 **** 0.06
3325 H 53.68714026911532 100.20518473658097 140.10991861825988 H 0.0 **** 0.06
3326 C 79.00882122884002 115.70472770690026 44.827492707689245 C 0.0 **** -0.24
3327 H 79.23449166991827 115.61731920479997 45.89050719666977 H 0.0 **** 0.06
3328 H 78.07990492281152 116.26150231615185 44.69772845549721 H 0.0 **** 0.06
3329 H 78.89834147264457 114.70947042955382 44.396291621847766 H 0.0 **** 0.06
3330 H 79.82162474991281 116.23062190236814 44.32583053249755 H 0.0 **** 0.06
3331 C 61.775453421825105 12.493553808238502 165.22544572264553 C 0.0 **** -0.24
3332 H 61.94947290615359 13.567662067894688 165.2846051137497 H 0.0 **** 0.06
3333 H 62.58895153622686 12.022982849112203 164.67355627102475 H 0.0 **** 0.06
3334 H 60.83195585151681 12.30631782549301 164.7124016538082 H 0.0 **** 0.06
3335 H 61.73068286161869 12.076939803204645 166.23237699701542 H 0.0 **** 0.06
3336 C 86.54095261076463 41.13665152686764 94.89910609446184 C 0.0 **** -0.24
3337 H 85.7626649076256 41.886879923971435 94.75904614009232 H 0.0 **** 0.06
3338 H 86.18286311020552 40.17172378430331 94.5417484081712 H 0.0 **** 0.06
3339 H 86.78737971105943 41.06430866469822 95.95863211688737 H 0.0 **** 0.06
3340 H 87.42923155236122 41.426080436610306 94.33771264110453 H 0.0 **** 0.06
3341 C 32.49913576997517 115.7338960324617 129.00150280705407 C 0.0 **** -0.24
3342 H 32.68785465604883 115.0836611860615 128.1468999577006 H 0.0 **** 0.06
3343 H 32.30003022124227 115.12471607516073 129.8837244185552 H 0.0 **** 0.06
3344 H 31.634748859872005 116.36502385994712 128.7928592218668 H 0.0 **** 0.06
3345 H 33.37168258700923 116.36037447823784 129.18119681985368 H 0.0 **** 0.06
3346 C 40.80128103357998 136.05218752305714 58.42635418977079 C 0.0 **** -0.24
3347 H 39.94208975422151 135.88325902560518 57.77766036537088 H 0.0 **** 0.06
3348 H 41.00591258906883 135.14841914316233 59.0007093409306 H 0.0 **** 0.06
3349 H 40.58466012379216 136.8751382017649 59.10750450201681 H 0.0 **** 0.06
3350 H 41.67078005934013 136.30198619741654 57.819130816658856 H 0.0 **** 0.06
3351 C 143.27711256896134 110.96337519744861 77.87058606332381 C 0.0 **** -0.24
3352 H 143.18266551547313 109.98771943668041 77.3937016124181 H 0.0 **** 0.06
3353 H 143.9123258717542 110.8756486220586 78.75219782715465 H 0.0 **** 0.06
3354 H 142.29091734079577 111.32031963442361 78.16634408606815 H 0.0 **** 0.06
3355 H 143.72341680524596 111.66870271608937 77.17006855069731 H 0.0 **** 0.06
3356 C 68.12405880869171 5.039461410496244 40.05753381311388 C 0.0 **** -0.24
3357 H 68.56166603620359 5.43682765586459 39.14214802288865 H 0.0 **** 0.06
3358 H 68.82623851397352 5.16727782313302 40.88127819510396 H 0.0 **** 0.06
3359 H 67.90599339828348 3.9800714308984766 39.92596441359615 H 0.0 **** 0.06
3360 H 67.20101162592336 5.5746686005637685 40.28123754213635 H 0.0 **** 0.06
3361 C 109.747601780054 89.06789448999052 51.80149642088065 C 0.0 **** -0.24
3362 H 109.13544363787511 89.52411385796728 51.02335473071982 H 0.0 **** 0.06
3363 H 110.56216583567556 89.74241455143914 52.06435618694967 H 0.0 **** 0.06
3364 H 110.15734125606585 88.12713127044304 51.43582816880216 H 0.0 **** 0.06
3365 H 109.13247767817072 88.87880569956502 52.681288984752115 H 0.0 **** 0.06
3366 C 122.40932024535033 14.878493511499528 77.76553284439268 C 0.0 **** -0.24
3367 H 123.49415521268813 14.954564039995603 77.69321723592242 H 0.0 **** 0.06
3368 H 122.01887170289618 14.39378060594808 76.86999247352958 H 0.0 **** 0.06
3369 H 121.98072923907844 15.875941997598034 77.85554069200924 H 0.0 **** 0.06
3370 H 122.14444484393835 14.28823141284542 78.64356467804186 H 0.0 **** 0.06
3371 C 112.89988041583862 155.1323059597491 34.36036379130674 C 0.0 **** -0.24
3372 H 113.6968415032674 155.43981536607038 35.03714009475459 H 0.0 **** 0.06
3373 H 112.8782251860757 154.0442555453531 34.29562166224326 H 0.0 **** 0.06
3374 H 113.08078505861278 155.5513748714717 33.370690141057196 H 0.0 **** 0.06
3375 H 111.94266302643982 155.49283051021172 34.73770596719676 H 0.0 **** 0.06
3376 C 168.13897955612737 85.14688153274136 32.027205976985044 C 0.0 **** -0.24
3377 H 167.72565181887134 85.62663454084878 31.139981980629983 H 0.0 **** 0.06
3378 H 169.11664274030102 84.7282812602848 31.791796441052384 H 0.0 **** 0.06
3379 H 167.4706415631459 84.34974732308046 32.35353185319315 H 0.0 **** 0.06
3380 H 168.24127790546055 85.884297865897 32.823706071093795 H 0.0 **** 0.06
3381 C 9.10852093944866 126.19725676624049 107.96182963770988 C 0.0 **** -0.24
3382 H 9.186967809963413 126.2723353976144 109.04633112131194 H 0.0 **** 0.06
3383 H 8.163794086430698 126.63280249128243 107.63506626123919 H 0.0 **** 0.06
3384 H 9.14580693224569 125.14791561586935 107.66613530011867 H 0.0 **** 0.06
3385 H 9.935622149026138 126.73481011443889 107.49953305002563 H 0.0 **** 0.06
3386 C 72.7162414450124 151.46686884802514 16.920121575589143 C 0.0 **** -0.24
3387 H 73.05928499925668 150.56865160865001 16.405858880879514 H 0.0 **** 0.06
3388 H 71.79285953035794 151.81890848247005 16.45994973086156 H 0.0 **** 0.06
3389 H 73.47900716608954 152.24294658253027 16.84392419782742 H 0.0 **** 0.06
3390 H 72.53578682890193 151.23695208388867 17.969700809613826 H 0.0 **** 0.06
3391 C 111.61773476379324 37.59110557988441 61.33884652327315 C 0.0 **** -0.24
3392 H 111.8805946589925 36.55151461061142 61.14124718338992 H 0.0 **** 0.06
3393 H 112.4951400723578 38.1243919211191 61.705087967087664 H 0.0 **** 0.06
3394 H 110.82861126959597 37.62876960269152 62.08959262388365 H 0.0 **** 0.06
3395 H 111.26578622513489 38.05744682718637 60.41802228134175 H 0.0 **** 0.06
3396 C 148.91037342845925 121.5926779997381 28.301748054819996 C 0.0 **** -0.24
3397 H 149.7692014008685 121.8183154977304 28.93259539976205 H 0.0 **** 0.06
3398 H 148.28079664946648 120.85268005898683 28.795811118537216 H 0.0 **** 0.06
3399 H 149.25465144932843 121.19726239893657 27.345733749108703 H 0.0 **** 0.06
3400 H 148.3360049997271 122.50322881535527 28.132017983505037 H 0.0 **** 0.06
3401 C 34.62502838896863 80.78549415949598 106.4777137935574 C 0.0 **** -0.24
3402 H 34.28245882807968 81.7034777086655 106.9561053767548 H 0.0 **** 0.06
3403 H 35.129291852956044 81.02959180054259 105.5431669185748 H 0.0 **** 0.06
3404 H 33.76913316168584 80.1426149047353 106.27299007918467 H 0.0 **** 0.06
3405 H 35.31842177955613 80.2680770013825 107.14086481743769 H 0.0 **** 0.06
3406 C 81.99084101337736 92.0847882020762 6.604417840066731 C 0.0 **** -0.24
3407 H 82.49527246562914 92.55248817501194 7.449544937991703 H 0.0 **** 0.06
3408 H 80.9815208733857 92.48803047197111 6.516646900410848 H 0.0 **** 0.06
3409 H 81.94095858892663 91.00777625773799 6.761539364194704 H 0.0 **** 0.06
3410 H 82.54651799276807 92.29371522712856 5.690064085731194 H 0.0 **** 0.06
3411 C 23.303018230461078 62.55774669794273 3.3400921032070414 C 0.0 **** -0.24
3412 H 22.81985345807226 61.95193711572419 2.5731313779903076 H 0.0 **** 0.06
3413 H 23.530883584279167 61.93386753138721 4.205267458289512 H 0.0 **** 0.06
3414 H 22.63378370090888 63.36487395699308 3.640566660192917 H 0.0 **** 0.06
3415 H 24.22571729765056 62.979891894205494 2.9426112422113135 H 0.0 **** 0.06
3416 C 23.951890750788593 152.00414377594683 90.87687156941753 C 0.0 **** -0.24
3417 H 24.520838852071236 151.27485607755955 91.45233021892804 H 0.0 **** 0.06
3418 H 23.92642416288099 152.95215998726562 91.41492353977176 H 0.0 **** 0.06
3419 H 22.934249910965292 151.64045707835558 90.73378313998604 H 0.0 **** 0.06
3420 H 24.425108780335705 152.150151810498 89.90544346688802 H 0.0 **** 0.06
3421 C 99.01359787702413 43.193636783862914 115.608783832103 C 0.0 **** -0.24
3422 H 98.93075856844922 43.10194716969258 116.69169926973956 H 0.0 **** 0.06
3423 H 98.36185859773809 42.46082046664857 115.13197530576903 H 0.0 **** 0.06
3424 H 100.04477660535525 43.01464982703298 115.3069540143841 H 0.0 **** 0.06
3425 H 98.71470193279816 44.19755808337655 115.30524560012063 H 0.0 **** 0.06
3426 C 9.240124190928356 143.06337219787991 45.40975510056603 C 0.0 **** -0.24
3427 H 9.896904926729633 143.50426447800626 46.15898351643706 H 0.0 **** 0.06
3428 H 9.664688975292961 142.1205034536798 45.06352759037604 H 0.0 **** 0.06
3429 H 9.138241899798658 143.74693426882226 44.567913055062164 H 0.0 **** 0.06
3430 H 8.259338294519836 142.88027867004269 45.84958460521656 H 0.0 **** 0.06
3431 C 155.31881401931574 128.4254897422196 9.954233596909432 C 0.0 **** -0.24
3432 H 155.1383688932693 127.83539805480805 10.852585161510092 H 0.0 **** 0.06
3433 H 155.1956210915177 129.48393620968648 10.184743417798757 H 0.0 **** 0.06
3434 H 154.6066148958322 128.13662605473 9.18113763235337 H 0.0 **** 0.06
3435 H 156.33370148722574 128.24630624950225 9.59840933477787 H 0.0 **** 0.06
3436 C 149.61177881448515 8.62461280773337 90.29873825186313 C 0.0 **** -0.24
3437 H 149.8094245812995 7.67521605308184 90.79799387980991 H 0.0 **** 0.06
3438 H 150.28787722143474 8.736208955302516 89.45086595092502 H 0.0 **** 0.06
3439 H 149.76917477738695 9.443277311547462 91.00022602598415 H 0.0 **** 0.06
3440 H 148.58036910885272 8.64144513724392 89.94665463193189 H 0.0 **** 0.06
3441 C 86.38456956833721 100.63871424221455 66.13606569710407 C 0.0 **** -0.24
3442 H 85.62419142713185 100.88838741536128 66.87534544422445 H 0.0 **** 0.06
3443 H 87.0463428953127 101.49266606300938 65.99306037120499 H 0.0 **** 0.06
3444 H 85.90274202441361 100.39004563343977 65.18990114630287 H 0.0 **** 0.06
3445 H 86.9634626881508 99.78351088534927 66.48359574749696 H 0.0 **** 0.06
3446 C 44.149474917944985 84.72500300290278 21.287382353443007 C 0.0 **** -0.24
3447 H 44.28168656621588 85.31044417221676 20.377197801911564 H 0.0 **** 0.06
3448 H 44.89494172975013 83.93051877802134 21.3198358661418 H 0.0 **** 0.06
3449 H 43.15093413236184 84.28801889231255 21.296347402453193 H 0.0 **** 0.06
3450 H 44.269822570159334 85.37223897846468 22.155624943714827 H 0.0 **** 0.06
3451 C 153.67927114789654 5.31982958182509 105.17279790977446 C 0.0 **** -0.24
3452 H 154.09047620683017 5.18455975534291 106.17329262052618 H 0.0 **** 0.06
3453 H 153.983113120172 6.291916309615345 104.78430770757981 H 0.0 **** 0.06
3454 H 152.5907909611638 5.271374847097782 105.21956585729876 H 0.0 **** 0.06
3455 H 154.05020983210332 4.5325723953205355 104.51784084965988 H 0.0 **** 0.06
3456 C 107.87754466130153 13.820693043663141 141.39145002386581 C 0.0 **** -0.24
3457 H 106.94894718558268 14.176203689496106 141.83805062245898 H 0.0 **** 0.06
3458 H 108.47881898437913 13.3222809868831 142.15242428158464 H 0.0 **** 0.06
3459 H 108.43259272215221 14.666673428592787 140.9861217346069 H 0.0 **** 0.06
3460 H 107.64929047332421 13.117650849449149 140.59051439771133 H 0.0 **** 0.06
3461 C 36.10795781473874 149.84444252829718 127.94813185189446 C 0.0 **** -0.24
3462 H 35.287968042783575 149.5593422218674 127.28858974574266 H 0.0 **** 0.06
3463 H 36.7526136312853 148.98216025246907 128.1199583775287 H 0.0 **** 0.06
3464 H 35.70500087449557 150.19202193966382 128.89898642541894 H 0.0 **** 0.06
3465 H 36.68559105822078 150.64405749211565 127.4842634072763 H 0.0 **** 0.06
3466 C 40.53494759778815 153.61930316040804 89.36125243503353 C 0.0 **** -0.24
3467 H 39.85559387381221 153.29992674167002 90.15116596743991 H 0.0 **** 0.06
3468 H 40.89635171662883 152.74494337644282 88.81905298473878 H 0.0 **** 0.06
3469 H 41.3798440744427 154.14984708522263 89.80056471432323 H 0.0 **** 0.06
3470 H 40.00843803341607 154.28159796104026 88.67416841112201 H 0.0 **** 0.06
3471 C 122.37853639077869 63.10523308878672 106.90631476834687 C 0.0 **** -0.24
3472 H 122.00006213173538 62.186507271663956 106.45933013205982 H 0.0 **** 0.06
3473 H 122.46916728683999 62.97409161456481 107.98530187761585 H 0.0 **** 0.06
3474 H 121.68962770912378 63.923120659915014 106.69549510385366 H 0.0 **** 0.06
3475 H 123.35761075363038 63.33730916450368 106.48590508424502 H 0.0 **** 0.06
3476 C 157.74626329078552 58.99139472409354 72.37639440430479 C 0.0 **** -0.24
3477 H 158.0729262017529 58.990366828987135 73.41679649013555 H 0.0 **** 0.06
3478 H 158.5903879508491 59.2390084319577 71.73221103342127 H 0.0 **** 0.06
3479 H 156.9585023332156 59.73343468176142 72.24479816080517 H 0.0 **** 0.06
3480 H 157.3649452019125 58.0051025551636 72.11471059286346 H 0.0 **** 0.06
3481 C 127.02763802856092 145.3136796232781 12.46951264980597 C 0.0 **** -0.24
3482 H 127.85491557657716 144.97586326600396 13.09342862435242 H 0.0 **** 0.06
3483 H 127.14926848703942 144.91899793351405 11.460527221375123 H 0.0 **** 0.06
3484 H 127.01814059170678 146.40321132871563 12.436396926495668 H 0.0 **** 0.06
3485 H 126.08714629286357 144.9555293314087 12.889591072162588 H 0.0 **** 0.06
3486 C 153.53305747372016 44.156143483950814 107.1375023611347 C 0.0 **** -0.24
3487 H 152.9972792686182 45.04814865350181 107.46051110483211 H 0.0 **** 0.06
3488 H 153.8475450897157 44.2767890621563 106.10106936462307 H 0.0 **** 0.06
3489 H 152.87770687301406 43.2891739937304 107.22031947745756 H 0.0 **** 0.06
3490 H 154.4091994915092 44.01104640115648 107.76929677308942 H 0.0 **** 0.06
3491 C 42.160884770223674 108.5041803197746 79.87325067059807 C 0.0 **** -0.24
3492 H 41.74846350026104 108.64886820296311 80.87110299402475 H 0.0 **** 0.06
3493 H 42.146634167021034 107.44246933109366 79.62535169165892 H 0.0 **** 0.06
3494 H 43.18708101742442 108.86985237939052 79.84772864611129 H 0.0 **** 0.06
3495 H 41.55974416287262 109.05399857995693 79.14862314268227 H 0.0 **** 0.06
3496 C 158.82472179866613 67.64088444186564 14.062048588406654 C 0.0 **** -0.24
3497 H 158.0008873936605 67.43718845710907 13.377627651703804 H 0.0 **** 0.06
3498 H 158.56397894668225 68.48411707245853 14.702397015438713 H 0.0 **** 0.06
3499 H 159.72115078802324 67.88161405641517 13.489834005549582 H 0.0 **** 0.06
3500 H 159.01210880479726 66.76114638747848 14.677959506398835 H 0.0 **** 0.06
3501 C 167.0583320021255 2.3030766567582646 78.55919036496647 C 0.0 **** -0.24
3502 H 167.64067937854128 1.9830571054452548 79.42289470609296 H 0.0 **** 0.06
3503 H 166.1335997170429 2.771258204864921 78.89800956814028 H 0.0 **** 0.06
3504 H 166.8216611340814 1.4373842484911847 77.93983040033982 H 0.0 **** 0.06
3505 H 167.63638846182027 3.020007729903398 77.9768281684307 H 0.0 **** 0.06
3506 C 157.4904996811546 34.755585298347 116.24059225538889 C 0.0 **** -0.24
3507 H 156.53630940925885 34.74095273815854 115.71358370953627 H 0.0 **** 0.06
3508 H 158.2397838017011 35.24763047335577 115.62136046825083 H 0.0 **** 0.06
3509 H 157.80544000853644 33.73248094340752 116.44894121424096 H 0.0 **** 0.06
3510 H 157.37917733095637 35.29951771439028 117.17798812395432 H 0.0 **** 0.06
3511 C 78.24851112702373 3.715758757104723 101.25493768854909 C 0.0 **** -0.24
3512 H 78.34129695174306 3.9978223387045304 102.30406739089585 H 0.0 **** 0.06
3513 H 78.49498469216525 2.66097565445844 101.13936722020165 H 0.0 **** 0.06
3514 H 78.93221752925069 4.317855674462102 100.65631589739374 H 0.0 **** 0.06
3515 H 77.22522377341858 3.889821157568555 100.92246294729335 H 0.0 **** 0.06
3516 C 130.79014483696974 6.159381345610086 165.6605207676267 C 0.0 **** -0.24
3517 H 131.34899067534602 5.59508479019496 166.40656894960892 H 0.0 **** 0.06
3518 H 130.57370335244013 7.155267471359423 166.04589599611657 H 0.0 **** 0.06
3519 H 129.8549568968162 5.64339318944792 165.43998740939364 H 0.0 **** 0.06
3520 H 131.38313168792706 6.2428108829537905 164.74977091684468 H 0.0 **** 0.06
3521 C 141.12190429753957 103.66994837164981 40.605559661282086 C 0.0 **** -0.24
3522 H 141.09216060593508 103.62272321453489 39.516604976422244 H 0.0 **** 0.06
3523 H 141.64314692738827 102.79423770187134 40.99281815464957 H 0.0 **** 0.06
3524 H 140.10372757452578 103.69001590731219 40.99629190462812 H 0.0 **** 0.06
3525 H 141.64762168934803 104.57362240436763 40.91532840659539 H 0.0 **** 0.06
3526 C 111.79114066097935 46.31829512058482 28.69849514331854 C 0.0 **** -0.24
3527 H 111.80682292349937 47.16904633862136 28.016328263282134 H 0.0 **** 0.06
3528 H 112.8028133643613 46.11914897611581 29.053316740120025 H 0.0 **** 0.06
3529 H 111.40960525145249 45.440629374200725 28.176435987120755 H 0.0 **** 0.06
3530 H 111.14697256325528 46.54548392063214 29.547910763162662 H 0.0 **** 0.06
3531 C 61.51637427633898 121.98311644972986 107.93355376934608 C 0.0 **** -0.24
3532 H 62.33841660835503 121.29370488274344 108.12242208826723 H 0.0 **** 0.06
3533 H 61.14823041256005 121.83888932303702 106.91694575021128 H 0.0 **** 0.06
3534 H 61.86749454761025 123.00836691454924 108.05042217372414 H 0.0 **** 0.06
3535 H 60.711046794950846 121.7908359635438 108.64208890032646 H 0.0 **** 0.06
3536 C 104.13412080753855 167.4649865772729 105.5599177568929 C 0.0 **** -0.24
3537 H 104.04912286278324 167.38391294718508 104.47597420740749 H 0.0 **** 0.06
3538 H 103.28253133677416 168.02354747674548 105.94988995151931 H 0.0 **** 0.06
3539 H 105.05797152257074 167.98412561578613 105.81348368059457 H 0.0 **** 0.06
3540 H 104.14562539367114 166.46696657297593 105.99757731627324 H 0.0 **** 0.06
3541 C 115.12133642193277 9.019078980511296 110.32758180939038 C 0.0 **** -0.24
3542 H 114.88967083035439 9.993975226398163 109.89907914033955 H 0.0 **** 0.06
3543 H 114.31636657894163 8.715510321808694 110.996291599973 H 0.0 **** 0.06
3544 H 116.05535433620963 9.081041860360642 110.88615617868061 H 0.0 **** 0.06
3545 H 115.22515358986277 8.28667776512117 109.52685860678423 H 0.0 **** 0.06
3546 C 101.74762594958071 168.66169741738787 148.62763719783132 C 0.0 **** -0.24
3547 H 100.7051316132509 168.34784216686512 148.6812527502472 H 0.0 **** 0.06
3548 H 101.8064396945311 169.65074123107334 148.17240595398803 H 0.0 **** 0.06
3549 H 102.30981519096093 167.94877551166996 148.0231631760959 H 0.0 **** 0.06
3550 H 102.16780029353976 168.6975545852062 149.63179152606233 H 0.0 **** 0.06
3551 C 143.3745499156281 126.06717110384923 72.10275326751312 C 0.0 **** -0.24
3552 H 144.22565976067096 125.90427673560745 71.44117889114231 H 0.0 **** 0.06
3553 H 143.4593645452963 127.05087513153848 72.56627143824046 H 0.0 **** 0.06
3554 H 143.36376928505985 125.300241884997 72.87593466960016 H 0.0 **** 0.06
3555 H 142.45118223904467 126.01485848361762 71.52553344761202 H 0.0 **** 0.06
3556 C 165.07403537949583 94.44566889245448 43.94193698470269 C 0.0 **** -0.24
3557 H 165.99427960920434 93.86290809254137 43.98090606628445 H 0.0 **** 0.06
3558 H 165.31604361762433 95.49490025179188 43.76746978922709 H 0.0 **** 0.06
3559 H 164.54172392482457 94.34770719321838 44.88723120445319 H 0.0 **** 0.06
3560 H 164.44560811133644 94.07758739254481 43.130551514536975 H 0.0 **** 0.06
3561 C 38.270031798418245 18.126103570135854 28.546046753788744 C 0.0 **** -0.24
3562 H 38.6834432851428 19.119933057068238 28.720253821258524 H 0.0 **** 0.06
3563 H 38.55090234460749 17.46653390023971 29.36723965242021 H 0.0 **** 0.06
3564 H 38.66239811453778 17.72948932214291 27.609971981038186 H 0.0 **** 0.06
3565 H 37.18373947455086 18.189334641556343 28.486397869983065 H 0.0 **** 0.06
3566 C 171.26311283040474 35.518379255811624 161.3922590334892 C 0.0 **** -0.24
3567 H 170.28382248130927 35.03883815392484 161.3958581110847 H 0.0 **** 0.06
3568 H 172.03349653370947 34.77133854897065 161.58913051171754 H 0.0 **** 0.06
3569 H 171.29424770456086 36.28592436811991 162.16563947561676 H 0.0 **** 0.06
3570 H 171.43954192841946 35.975414840479885 160.4188472927521 H 0.0 **** 0.06
3571 C 95.77010735202566 34.67276039459705 145.23968073636166 C 0.0 **** -0.24
3572 H 95.53073845449217 35.44169026463834 145.97404002402425 H 0.0 **** 0.06
3573 H 96.47255952476905 35.073584696752164 144.5088236963176 H 0.0 **** 0.06
3574 H 94.85752921609838 34.35776388239094 144.73286661863963 H 0.0 **** 0.06
3575 H 96.21934620242104 33.81640613966408 145.74416966000342 H 0.0 **** 0.06
3576 C 134.71802993475998 90.99604570018971 155.85630467478094 C 0.0 **** -0.24
3577 H 134.39582036182082 91.3666246699437 154.88364061214642 H 0.0 **** 0.06
3578 H 135.55522453605894 91.59537434610006 156.2143445661136 H 0.0 **** 0.06
3579 H 135.0283940413425 89.95528998439087 155.76432183728633 H 0.0 **** 0.06
3580 H 133.89083766792493 91.06628433696083 156.56339286022003 H 0.0 **** 0.06
3581 C 31.59507683413409 168.1342692766391 141.15545935001677 C 0.0 **** -0.24
3582 H 30.904381852359734 168.96970003965453 141.27368833102122 H 0.0 **** 0.06
3583 H 32.54416932139132 168.5011485171875 140.76246913839822 H 0.0 **** 0.06
3584 H 31.17064149784474 167.40752502685405 140.46369234402042 H 0.0 **** 0.06
3585 H 31.76153047583668 167.66191291452563 142.12386569671042 H 0.0 **** 0.06
3586 C 81.15210096371015 79.67368552500332 99.04343177653303 C 0.0 **** -0.24
3587 H 82.22242026111883 79.59210786469717 98.85530453565607 H 0.0 **** 0.06
3588 H 80.77547273446834 78.72139383664 99.4176695627832 H 0.0 **** 0.06
3589 H 80.63925051044214 79.92918623077672 98.11575726003414 H 0.0 **** 0.06
3590 H 80.97242288104133 80.45302542466764 99.78415594833686 H 0.0 **** 0.06
3591 C 106.11658504341716 49.35536625140915 126.00329683872658 C 0.0 **** -0.24
3592 H 106.62805126938909 49.81439632149005 126.8501692721448 H 0.0 **** 0.06
3593 H 105.05180168786353 49.58034945606465 126.05720533161667 H 0.0 **** 0.06
3594 H 106.26272457103252 48.27528534450164 126.03416235113346 H 0.0 **** 0.06
3595 H 106.52578770853486 49.75130531145703 125.07386011488657 H 0.0 **** 0.06
3596 C 172.32754547854472 91.32101777473186 31.37822067994088 C 0.0 **** -0.24
3597 H 172.1679858157122 90.79124730038355 30.43886603194224 H 0.0 **** 0.06
3598 H 173.26953422352983 90.9986751197278 31.821819147027668 H 0.0 **** 0.06
3599 H 171.50808182271396 91.10150818765504 32.06279503660909 H 0.0 **** 0.06
3600 H 172.36349821882072 92.39409214099396 31.18855252713746 H 0.0 **** 0.06
3601 C 90.38598250089761 53.41762640694094 99.72614221138173 C 0.0 **** -0.24
3602 H 91.28429316041812 53.605303634657844 99.13830091294966 H 0.0 **** 0.06
3603 H 90.61921090819008 53.51022585743385 100.78718276464252 H 0.0 **** 0.06
3604 H 90.02075900912853 52.41119884497772 99.52034239709093 H 0.0 **** 0.06
3605 H 89.61817124254783 54.143858986035184 99.45787309210135 H 0.0 **** 0.06
3606 C 10.546343376247762 73.41186306654623 101.8823286283833 C 0.0 **** -0.24
3607 H 10.567597486024482 74.03914228816897 102.77380787194531 H 0.0 **** 0.06
3608 H 10.73600787597556 72.3748264878789 102.16332820246157 H 0.0 **** 0.06
3609 H 11.315960819244282 73.74538865848469 101.18591505279892 H 0.0 **** 0.06
3610 H 9.568692240143093 73.48696615838968 101.40810830290144 H 0.0 **** 0.06
3611 C 54.16883795248533 82.65541125385846 25.01099713117773 C 0.0 **** -0.24
3612 H 53.3504215144597 82.82325352044933 24.311993089632296 H 0.0 **** 0.06
3613 H 53.86028887343238 81.93162484749425 25.764819303086824 H 0.0 **** 0.06
3614 H 54.43097427288433 83.5959731605748 25.495770317166063 H 0.0 **** 0.06
3615 H 55.03452356594737 82.27190638415651 24.4712382860545 H 0.0 **** 0.06
3616 C 32.217301053609475 111.82512089684144 102.63271467361557 C 0.0 **** -0.24
3617 H 31.536900007502254 111.19054796855627 103.20118614987021 H 0.0 **** 0.06
3618 H 33.24288125504893 111.62817665211324 102.94419081460046 H 0.0 **** 0.06
3619 H 31.975650161267666 112.87185816416985 102.81750949834645 H 0.0 **** 0.06
3620 H 32.11149145192637 111.60976191394076 101.56991554199524 H 0.0 **** 0.06
3621 C 21.900529031326897 169.09856405418512 95.06201068627405 C 0.0 **** -0.24
3622 H 21.188529411231684 168.91081144096475 94.25719534530478 H 0.0 **** 0.06
3623 H 22.079761026661345 168.17276552477662 95.60917718215674 H 0.0 **** 0.06
3624 H 21.494457847861014 169.84947674764234 95.73930492713794 H 0.0 **** 0.06
3625 H 22.8385822709497 169.45954907720142 94.63978665844945 H 0.0 **** 0.06
3626 C 100.75014768545583 48.51677031810878 142.69764911057405 C 0.0 **** -0.24
3627 H 99.83512367316044 48.005079797080555 142.99662914890587 H 0.0 **** 0.06
3628 H 100.55247666827353 49.58392569873517 142.59327590166612 H 0.0 **** 0.06
3629 H 101.0949741841855 48.11604959943246 141.7435401943577 H 0.0 **** 0.06
3630 H 101.51732427612933 48.360981692030705 143.45595522350095 H 0.0 **** 0.06
3631 C 121.61721140549875 116.75041703787653 63.428995908031 C 0.0 **** -0.24
3632 H 122.56520927732188 116.21297171636368 63.391342614441726 H 0.0 **** 0.06
3633 H 121.11534405015118 116.53530140623178 64.37241289424395 H 0.0 **** 0.06
3634 H 120.98497924620321 116.42957040326439 62.599741314521154 H 0.0 **** 0.06
3635 H 121.80338057114767 117.82162715697191 63.350707259663125 H 0.0 **** 0.06
3636 C 114.92607247533175 154.30835971736082 138.3328295530854 C 0.0 **** -0.24
3637 H 113.98688252551113 154.06985411137998 138.83120238314558 H 0.0 **** 0.06
3638 H 115.37013964588476 155.1885856473101 138.79755833581126 H 0.0 **** 0.06
3639 H 114.73696880311837 154.5095843856013 137.27877708947574 H 0.0 **** 0.06
3640 H 115.60952667081943 153.46424937066487 138.42521067707443 H 0.0 **** 0.06
3641 C 161.53417127073607 111.97453834332646 25.709658165495114 C 0.0 **** -0.24
3642 H 162.55212040138213 112.1415104115452 26.061465036272125 H 0.0 **** 0.06
3643 H 161.0024218669834 111.34501813112388 26.424041882568304 H 0.0 **** 0.06
3644 H 161.56190282905297 111.48019010498399 24.738531516352936 H 0.0 **** 0.06
3645 H 161.02075485480034 112.93118766016858 25.615888028990128 H 0.0 **** 0.06
3646 C 111.47774927212186 12.255942717629267 7.0523547564008595 C 0.0 **** -0.24
3647 H 111.14074288153745 11.360188498059188 7.5741413591945275 H 0.0 **** 0.06
3648 H 112.27423229262962 12.730759840916534 7.625700808393276 H 0.0 **** 0.06
3649 H 110.64311834507538 12.948575122989155 6.945141210432951 H 0.0 **** 0.06
3650 H 111.85195991576677 11.98269465097053 6.066078398202194 H 0.0 **** 0.06
3651 C 108.7906222358647 59.5418041765882 78.88423011909123 C 0.0 **** -0.24
3652 H 109.54118090102264 60.125053243665576 78.35251746285695 H 0.0 **** 0.06
3653 H 108.32018935471532 60.16311991022489 79.64784449427036 H 0.0 **** 0.06
3654 H 109.26612399453742 58.68206802508743 79.35707896677813 H 0.0 **** 0.06
3655 H 108.03284266289324 59.19637692674432 78.17958242409975 H 0.0 **** 0.06
3656 C 156.0351061976438 144.36256767464582 169.16226337125488 C 0.0 **** -0.24
3657 H 156.25167962770627 145.29639439522526 169.6799725158594 H 0.0 **** 0.06
3658 H 155.4089885838146 144.56595142970426 168.29384760045355 H 0.0 **** 0.06
3659 H 155.51143908208056 143.6854642903317 169.83756253565554 H 0.0 **** 0.06
3660 H 156.9692718058121 143.90258856416744 168.83794091355065 H 0.0 **** 0.06
3661 C 125.98875559703481 81.85225454142683 36.54839488583812 C 0.0 **** -0.24
3662 H 125.57747575211454 81.07349157257983 35.90719579428216 H 0.0 **** 0.06
3663 H 125.75555688065629 82.83026453866493 36.127970129023026 H 0.0 **** 0.06
3664 H 127.0706911211613 81.7339215826447 36.61487828818227 H 0.0 **** 0.06
3665 H 125.55269109117171 81.77006614710157 37.544734206244854 H 0.0 **** 0.06
3666 C 51.53443218215706 76.00057277267462 109.30836122719208 C 0.0 **** -0.24
3667 H 51.13146960909896 75.45567281976378 108.45426790108473 H 0.0 **** 0.06
3668 H 52.62330026273557 75.96772972018334 109.27978140903397 H 0.0 **** 0.06
3669 H 51.180781118472325 75.53990902541602 110.23157629646707 H 0.0 **** 0.06
3670 H 51.19931501482421 77.03683748413687 109.2682849595638 H 0.0 **** 0.06
3671 C 53.29209574501654 22.81959774221872 2.296888519088384 C 0.0 **** -0.24
3672 H 53.12382396821923 23.87164060052828 2.0618977093618582 H 0.0 **** 0.06
3673 H 54.08636624166131 22.428576536770947 1.6600494387259914 H 0.0 **** 0.06
3674 H 52.374680268738956 22.257777382247696 2.1214607246283776 H 0.0 **** 0.06
3675 H 53.584147671232785 22.724000306392043 3.3425308954577986 H 0.0 **** 0.06
3676 C 144.5614183712159 52.96695694182455 83.71922598816235 C 0.0 **** -0.24
3677 H 143.50154313995566 52.85626501377902 83.94612452812822 H 0.0 **** 0.06
3678 H 145.04098567057545 53.558208024190094 84.49967237552943 H 0.0 **** 0.06
3679 H 144.67609985424275 53.47098327783874 82.75868507627217 H 0.0 **** 0.06
3680 H 145.02715038510138 51.98243508573424 83.6699755520068 H 0.0 **** 0.06
3681 C 157.089190587352 66.329376901536 73.4814767986602 C 0.0 **** -0.24
3682 H 157.32576964246496 66.82033931383515 72.53803606536215 H 0.0 **** 0.06
3683 H 156.02135141630458 66.11771232510534 73.52270494439915 H 0.0 **** 0.06
3684 H 157.36328987984646 66.9827186494991 74.30965329949136 H 0.0 **** 0.06
3685 H 157.64831334550462 65.39685931481279 73.55514404854522 H 0.0 **** 0.06
3686 C 29.108624346827355 22.87793471864598 26.712704342749646 C 0.0 **** -0.24
3687 H 29.493826855947702 22.104197582481532 26.04978955824248 H 0.0 **** 0.06
3688 H 28.973567176393942 23.802463007500506 26.15133174841469 H 0.0 **** 0.06
3689 H 29.81503489687418 23.04500292342515 27.52501431910025 H 0.0 **** 0.06
3690 H 28.150276110617824 22.559353923066617 27.12355606445192 H 0.0 **** 0.06
3691 C 145.61866683983376 30.229837035002816 29.0655189630221 C 0.0 **** -0.24
3692 H 146.18043787807497 29.605352838360574 28.37091333957261 H 0.0 **** 0.06
3693 H 145.38485347601295 29.65574229452767 29.961999704639823 H 0.0 **** 0.06
3694 H 144.6939977984353 30.558940700071958 28.592235639148385 H 0.0 **** 0.06
3695 H 146.2169239207658 31.099805891366827 29.33632117640775 H 0.0 **** 0.06
3696 C 140.82982475263813 9.288543970916862 41.73447907307579 C 0.0 **** -0.24
3697 H 139.74648803078338 9.408162624839917 41.73592989793303 H 0.0 **** 0.06
3698 H 141.0817605273357 8.260246497110614 41.47515522883316 H 0.0 **** 0.06
3699 H 141.22263075854423 9.520964297754148 42.724464136771275 H 0.0 **** 0.06
3700 H 141.26851867544704 9.967036091666557 41.002402378321705 H 0.0 **** 0.06
3701 C 34.54662685759587 108.46177922988903 17.844820542267087 C 0.0 **** -0.24
3702 H 34.3097543583787 109.35882657594257 18.417604694375314 H 0.0 **** 0.06
3703 H 34.03474840540518 107.6054883742807 18.282584830405483 H 0.0 **** 0.06
3704 H 35.623700027519234 108.29229391351817 17.865733007790254 H 0.0 **** 0.06
3705 H 34.219603913393385 108.59320125746964 16.81360212875103 H 0.0 **** 0.06
3706 C 155.19979055432822 159.10715784664637 155.92837440732958 C 0.0 **** -0.24
3707 H 155.5593741631954 159.19336038207763 154.90304571168184 H 0.0 **** 0.06
3708 H 155.66746429847916 158.24483732321752 156.40470811371233 H 0.0 **** 0.06
3709 H 154.11692330045204 158.97724043860094 155.92387978514236 H 0.0 **** 0.06
3710 H 155.4554166964559 160.01151565207104 156.48038565292802 H 0.0 **** 0.06
3711 C 105.25013171868562 159.16092147363395 83.55956312482026 C 0.0 **** -0.24
3712 H 105.3334483614982 160.20768735325163 83.85332108489446 H 0.0 **** 0.06
3713 H 105.92771026194336 158.55888615982403 84.16619318041383 H 0.0 **** 0.06
3714 H 105.51387004170684 159.05623446060153 82.5077956253148 H 0.0 **** 0.06
3715 H 104.22562844010781 158.82135620661325 83.71312307246397 H 0.0 **** 0.06
3716 C 110.65232223819996 113.04839344497012 13.458002750682255 C 0.0 **** -0.24
3717 H 110.91691312925786 112.79136295012103 14.483182316006946 H 0.0 **** 0.06
3718 H 109.7403621005538 113.64577344171872 13.457793213979045 H 0.0 **** 0.06
3719 H 110.48933536252048 112.13605177959613 12.88502620252001 H 0.0 **** 0.06
3720 H 111.46254562392639 113.62141873748371 13.006965869022395 H 0.0 **** 0.06
3721 C 155.75318131732251 23.619731178296426 8.811218672314965 C 0.0 **** -0.24
3722 H 154.93034315980674 23.378399168846926 8.138743099003989 H 0.0 **** 0.06
3723 H 156.13731873918982 22.703515071418387 9.259000600743974 H 0.0 **** 0.06
3724 H 155.39649868248938 24.286805551771053 9.596956863428147 H 0.0 **** 0.06
3725 H 156.54792787899913 24.112481482656584 8.250815928109944 H 0.0 **** 0.06
3726 C 33.48794868420654 118.41745281394304 52.35768872511848 C 0.0 **** -0.24
3727 H 33.20263942903591 119.4603896798672 52.22027145972666 H 0.0 **** 0.06
3728 H 34.52952980812779 118.36425050939039 52.67395673199863 H 0.0 **** 0.06
3729 H 33.36423033896091 117.88075698447108 51.4179608410047 H 0.0 **** 0.06
3730 H 32.85360879785378 117.96530369415933 53.12057029322642 H 0.0 **** 0.06
3731 C 31.369899425327347 147.56978691361977 71.86249358968468 C 0.0 **** -0.24
3732 H 32.15121490824427 148.29452476822476 72.09529263032118 H 0.0 **** 0.06
3733 H 31.337959450249144 147.40434549940144 70.7853663106658 H 0.0 **** 0.06
3734 H 30.406947554312524 147.9542414082025 72.19977780423434 H 0.0 **** 0.06
3735 H 31.58393423473015 146.62972781535115 72.36993831275356 H 0.0 **** 0.06
3736 C 158.51260864967412 30.58527716863938 13.51754380285422 C 0.0 **** -0.24
3737 H 158.52162476386474 31.568456713003457 13.988548995270776 H 0.0 **** 0.06
3738 H 158.43760675370675 30.701603858944623 12.435987043068337 H 0.0 **** 0.06
3739 H 157.65870380550757 30.01544642748931 13.88207856208038 H 0.0 **** 0.06
3740 H 159.43448127504328 30.056636676876252 13.763536335498202 H 0.0 **** 0.06
3741 C 98.69457007672105 92.55833819203886 90.45065772983514 C 0.0 **** -0.24
3742 H 98.63702180511513 93.40851795319054 91.13019120881683 H 0.0 **** 0.06
3743 H 97.881928358219 92.61815899475769 89.72589492320316 H 0.0 **** 0.06
3744 H 98.60712596259845 91.63283048635682 91.01850996286515 H 0.0 **** 0.06
3745 H 99.65016647806448 92.57494269697736 89.92723249740078 H 0.0 **** 0.06
3746 C 92.81056985128097 68.43708578986411 88.52708402986963 C 0.0 **** -0.24
3747 H 91.8634221639596 68.39939628108755 87.98823157713332 H 0.0 **** 0.06
3748 H 92.74630467851915 67.81133756262352 89.4173162083123 H 0.0 **** 0.06
3749 H 93.021262266034 69.46584602391772 88.8186012018576 H 0.0 **** 0.06
3750 H 93.60910531295701 68.07096566137068 87.88143213758381 H 0.0 **** 0.06
3751 C 166.81151214542086 149.6806927248357 115.22143812309852 C 0.0 **** -0.24
3752 H 167.1157530890073 149.42661799065814 114.20604969323983 H 0.0 **** 0.06
3753 H 165.74553238076277 149.4852906552741 115.340733449874 H 0.0 **** 0.06
3754 H 167.01101627081957 150.7358881705545 115.4063376672828 H 0.0 **** 0.06
3755 H 167.3737179857682 149.07387971586178 115.9306818953649 H 0.0 **** 0.06
3756 C 131.22743279274272 131.7575346631102 15.2387222755805 C 0.0 **** -0.24
3757 H 130.6908159693947 132.69810782437358 15.368424766290218 H 0.0 **** 0.06
3758 H 130.66766756499993 131.1122049623563 14.561513548199855 H 0.0 **** 0.06
3759 H 131.33537489988157 131.26566943744524 16.204854386292823 H 0.0 **** 0.06
3760 H 132.21334718708914 131.95770893740305 14.820053872455958 H 0.0 **** 0.06
3761 C 132.75290110104285 92.03238665434577 25.611724205404983 C 0.0 **** -0.24
3762 H 132.94512902305334 92.37065172224314 26.629372633691816 H 0.0 **** 0.06
3763 H 133.65932732142218 92.13748167711438 25.015938409520345 H 0.0 **** 0.06
3764 H 131.9581363811632 92.63591498008066 25.172830372119506 H 0.0 **** 0.06
3765 H 132.44717989598848 90.9860317193754 25.627219132267953 H 0.0 **** 0.06
3766 C 116.0088305488866 142.68502608886266 136.55981827840137 C 0.0 **** -0.24
3767 H 115.59967164380697 141.6896869969775 136.38673082456498 H 0.0 **** 0.06
3768 H 115.44560937225572 143.41559349658914 135.97738853005103 H 0.0 **** 0.06
3769 H 117.05512887528766 142.70515930403434 136.25510751749735 H 0.0 **** 0.06
3770 H 115.93377828140132 142.92884604114585 137.61983629252094 H 0.0 **** 0.06
3771 C 37.10640945471266 88.99293938784734 46.98198455539632 C 0.0 **** -0.24
3772 H 36.41160246188764 89.29515014618903 47.765787524627726 H 0.0 **** 0.06
3773 H 37.68396622527638 89.85725655488153 46.65455335823361 H 0.0 **** 0.06
3774 H 36.548431304271105 88.58698298899077 46.1379780497215 H 0.0 **** 0.06
3775 H 37.78168451245841 88.23040839320112 47.37069559975026 H 0.0 **** 0.06
3776 C 21.88950084415739 42.96746432181105 34.78182073298774 C 0.0 **** -0.24
3777 H 22.972808242002266 43.00707485180557 34.66142008889126 H 0.0 **** 0.06
3778 H 21.412963842539774 43.02913835381767 33.8032457506832 H 0.0 **** 0.06
3779 H 21.562775336050386 43.80399315560547 35.399144897508876 H 0.0 **** 0.06
3780 H 21.612453502879752 42.03059439094997 35.26382555893211 H 0.0 **** 0.06
3781 C 142.4521683848124 72.4162147330511 97.69730849855671 C 0.0 **** -0.24
3782 H 142.70691968292311 71.40213998019789 97.38827067749546 H 0.0 **** 0.06
3783 H 141.54663530021838 72.39351936500515 98.3042928156951 H 0.0 **** 0.06
3784 H 142.28287391713064 73.03248899945532 96.814186420943 H 0.0 **** 0.06
3785 H 143.27164972602873 72.83435949916634 98.2821396536066 H 0.0 **** 0.06
3786 C 100.8385055654166 124.2091210575741 75.37971659387279 C 0.0 **** -0.24
3787 H 100.039252464036 124.71473473022192 75.92109581709241 H 0.0 **** 0.06
3788 H 101.21720067162735 123.38187961174572 75.98038938687102 H 0.0 **** 0.06
3789 H 101.64544062252179 124.91463505644325 75.18067637821497 H 0.0 **** 0.06
3790 H 100.45059808208629 123.82477539924722 74.43603635049482 H 0.0 **** 0.06
3791 C 119.65346377181464 99.95424735198577 132.09291883010707 C 0.0 **** -0.24
3792 H 118.79581427228044 100.32307390136697 132.6559121783268 H 0.0 **** 0.06
3793 H 119.645213562827 100.38862225237443 131.09229271709322 H 0.0 **** 0.06
3794 H 119.59802569113853 98.8679275390898 132.01728755235933 H 0.0 **** 0.06
3795 H 120.57307803878393 100.23726817010231 132.60476157192127 H 0.0 **** 0.06
3796 C 72.68708669565694 54.370723749050924 75.91666874470457 C 0.0 **** -0.24
3797 H 72.8343322488334 53.4330951497692 76.45320444581338 H 0.0 **** 0.06
3798 H 72.6866990985293 54.17910170270329 74.84337333227944 H 0.0 **** 0.06
3799 H 73.49540413052053 55.06003646542854 76.16220715014293 H 0.0 **** 0.06
3800 H 71.73323862661528 54.810195451059926 76.20774546609857 H 0.0 **** 0.06
3801 C 159.72787911273707 171.57709344810752 124.12660822893025 C 0.0 **** -0.24
3802 H 159.0288009525469 170.89661083945856 123.64110919412582 H 0.0 **** 0.06
3803 H 160.25573825851197 172.15722947859894 123.3683693815372 H 0.0 **** 0.06
3804 H 160.44692775141206 171.00202354434225 124.71059270199726 H 0.0 **** 0.06
3805 H 159.18139577273087 172.251116086311 124.78524590599011 H 0.0 **** 0.06
3806 C 5.716548621270647 89.2784003747226 108.2122161534179 C 0.0 **** -0.24
3807 H 5.9645272821586275 88.238140264729 108.42096396153823 H 0.0 **** 0.06
3808 H 5.588885901196079 89.81608895260001 109.15179287257286 H 0.0 **** 0.06
3809 H 4.7918362457780574 89.32432675382694 107.6379645155269 H 0.0 **** 0.06
3810 H 6.523005100604223 89.73566847513257 107.63931301620966 H 0.0 **** 0.06
3811 C 169.85245309180632 106.16259513513975 34.99448388902148 C 0.0 **** -0.24
3812 H 170.86191522309753 106.38168081316306 34.64479418441613 H 0.0 **** 0.06
3813 H 169.75677397665888 106.46671137299242 36.036882569734374 H 0.0 **** 0.06
3814 H 169.6633251509225 105.09207064055107 34.90913671169015 H 0.0 **** 0.06
3815 H 169.13124623098838 106.70888270189215 34.38731939842677 H 0.0 **** 0.06
3816 C 44.159514516628974 138.0566073657542 159.31052677682663 C 0.0 **** -0.24
3817 H 43.79504958978046 138.18732421032897 160.32974835543695 H 0.0 **** 0.06
3818 H 44.95894644941501 138.77104735056813 159.11685889664847 H 0.0 **** 0.06
3819 H 43.34259273739664 138.22581967758347 158.60876741981667 H 0.0 **** 0.06
3820 H 44.53894765309337 137.04284162919646 159.18824157486102 H 0.0 **** 0.06
3821 C 84.36523043525423 23.176851653852935 96.82572759224038 C 0.0 **** -0.24
3822 H 83.82761598562566 22.53262029590538 97.52102237082448 H 0.0 **** 0.06
3823 H 83.65145462910775 23.773934946244353 96.25697820679184 H 0.0 **** 0.06
3824 H 84.95119964836314 22.562598030795122 96.14203778481703 H 0.0 **** 0.06
3825 H 85.0304977998387 23.837244330314874 97.3818930614899 H 0.0 **** 0.06
3826 C 76.54340847042005 115.77042926768775 84.08867901980018 C 0.0 **** -0.24
3827 H 76.90637944563957 114.79926110759737 83.75127765758454 H 0.0 **** 0.06
3828 H 75.61452357266865 115.63766638677765 84.64338889955805 H 0.0 **** 0.06
3829 H 76.36255608320954 116.41062542456342 83.22460060312594 H 0.0 **** 0.06
3830 H 77.29023558465008 116.2331997487376 84.73343239489772 H 0.0 **** 0.06
3831 C 27.58246989501253 154.87860631601976 69.77095910921241 C 0.0 **** -0.24
3832 H 26.521192546312633 154.75455141343545 69.98799361078295 H 0.0 **** 0.06
3833 H 28.064925222232617 153.90062227785765 69.74765010600083 H 0.0 **** 0.06
3834 H 28.04121911817431 155.49211383813 70.54548917157388 H 0.0 **** 0.06
3835 H 27.700535453871296 155.36582482354382 68.80320096356701 H 0.0 **** 0.06
3836 C 63.46126330527292 149.16074832720105 68.9244983203788 C 0.0 **** -0.24
3837 H 64.2574186760342 149.7933204674758 68.53343276884897 H 0.0 **** 0.06
3838 H 62.49457228700652 149.60623310775665 68.6884178537847 H 0.0 **** 0.06
3839 H 63.56559183497092 149.07215307355537 70.00588706863476 H 0.0 **** 0.06
3840 H 63.52664599442471 148.17239492905094 68.47055909148855 H 0.0 **** 0.06
3841 C 17.816162900942743 38.11135427450856 128.7775305359189 C 0.0 **** -0.24
3842 H 17.93878650043601 38.710071928152416 127.87524743431399 H 0.0 **** 0.06
3843 H 18.30537204072766 37.14671331286553 128.64232913556071 H 0.0 **** 0.06
3844 H 16.754112027177257 37.956527183913124 128.96930831179753 H 0.0 **** 0.06
3845 H 18.265549122573447 38.63173923444708 129.62281964552906 H 0.0 **** 0.06
3846 C 24.80691770294021 168.63143136650675 85.43762409419622 C 0.0 **** -0.24
3847 H 25.156220794167993 169.6254133326641 85.15448906561441 H 0.0 **** 0.06
3848 H 25.532063883390492 168.16949235799697 86.10676348389256 H 0.0 **** 0.06
3849 H 24.69379793578471 168.01894903918523 84.54347674434938 H 0.0 **** 0.06
3850 H 23.846073931797903 168.71552217110985 85.94511021377319 H 0.0 **** 0.06
3851 C 162.66788492245325 90.49428228633856 31.06123883611599 C 0.0 **** -0.24
3852 H 162.68941980753397 91.1597041115204 30.19781643291455 H 0.0 **** 0.06
3853 H 163.68848301483305 90.25665361564218 31.361695723148955 H 0.0 **** 0.06
3854 H 162.14226633613333 89.5761126724778 30.798581545316523 H 0.0 **** 0.06
3855 H 162.15012023847495 90.98507326376262 31.88479642876092 H 0.0 **** 0.06
3856 C 83.87992533722615 41.26078173907824 117.29252325829361 C 0.0 **** -0.24
3857 H 84.273037161648 40.492092559193935 117.95848965864326 H 0.0 **** 0.06
3858 H 84.39780160802962 42.20168786360992 117.47750706101715 H 0.0 **** 0.06
3859 H 82.81365498833912 41.38883885353259 117.47678416205909 H 0.0 **** 0.06
3860 H 84.03579549377912 40.95681284500215 116.25725778464141 H 0.0 **** 0.06
3861 C 70.32556123723373 80.7624363522713 112.00007397225039 C 0.0 **** -0.24
3862 H 70.7314465245255 80.41757145284137 112.9508128980878 H 0.0 **** 0.06
3863 H 69.24919349834533 80.58890495329865 111.9808761673757 H 0.0 **** 0.06
3864 H 70.79696611602083 80.21491490876757 111.18426401969117 H 0.0 **** 0.06
3865 H 70.52426134841573 81.82820579970685 111.88569764233654 H 0.0 **** 0.06
3866 C 67.13452458117833 6.084142426989324 118.83624256092469 C 0.0 **** -0.24
3867 H 66.35894941514653 6.038520278866763 118.07161456595503 H 0.0 **** 0.06
3868 H 67.25033044549976 7.113670179355658 119.17523046346463 H 0.0 **** 0.06
3869 H 68.07675809718664 5.729731461646374 118.41824728011949 H 0.0 **** 0.06
3870 H 66.85126358072979 5.454044286859869 119.67984717657129 H 0.0 **** 0.06
3871 C 129.5339281918311 127.86067632338924 101.95668892015036 C 0.0 **** -0.24
3872 H 129.81681666544435 128.31321124451347 102.90675019338488 H 0.0 **** 0.06
3873 H 128.49983933814005 127.51729563670028 102.01229642197117 H 0.0 **** 0.06
3874 H 130.18782346363037 127.0137700647121 101.74884776578543 H 0.0 **** 0.06
3875 H 129.6289001813533 128.59858867041612 101.16045223532541 H 0.0 **** 0.06
3876 C 61.78952593284258 100.88568497320017 86.83877043584306 C 0.0 **** -0.24
3877 H 61.47542038826191 101.21986989453478 87.82751171950082 H 0.0 **** 0.06
3878 H 62.47567208065813 101.61599826361243 86.41002792206524 H 0.0 **** 0.06
3879 H 60.916093370663006 100.78566412490511 86.19453556457842 H 0.0 **** 0.06
3880 H 62.29082440227333 99.92216892791316 86.92403958270637 H 0.0 **** 0.06
3881 C 99.21743915604358 148.35735047065458 24.98899887943483 C 0.0 **** -0.24
3882 H 99.77240340103265 148.22286768551328 25.91779771129214 H 0.0 **** 0.06
3883 H 98.34969505635263 147.69587951168836 24.98504907231751 H 0.0 **** 0.06
3884 H 99.86131030071792 148.11690343827655 24.143492323969042 H 0.0 **** 0.06
3885 H 98.88623847720325 149.39220097524387 24.911264151054837 H 0.0 **** 0.06
3886 C 42.43453202444209 39.574627372444084 144.77738365563096 C 0.0 **** -0.24
3887 H 42.36928867435873 38.486810512953724 144.77640562143424 H 0.0 **** 0.06
3888 H 41.51306399059763 39.99426621925409 145.18282061388265 H 0.0 **** 0.06
3889 H 42.57787496352728 39.93003376471812 143.75675772252248 H 0.0 **** 0.06
3890 H 43.278211685022654 39.88680275412844 145.39281061598126 H 0.0 **** 0.06
3891 C 136.41839235095205 157.03757662146313 105.70433148673922 C 0.0 **** -0.24
3892 H 136.91834996072595 157.94867425111784 106.03278342853335 H 0.0 **** 0.06
3893 H 135.88405914550788 157.23186111310733 104.77463920836749 H 0.0 **** 0.06
3894 H 135.7130086242751 156.7148668204576 106.4698348220291 H 0.0 **** 0.06
3895 H 137.15994624182937 156.25534468738942 105.54132774313484 H 0.0 **** 0.06
3896 C 16.172886519017652 127.51477428441697 13.104932784299564 C 0.0 **** -0.24
3897 H 15.775072366359751 126.95513518668295 13.950655626639055 H 0.0 **** 0.06
3898 H 15.823723939813277 127.06500620079996 12.174965378637687 H 0.0 **** 0.06
3899 H 17.263209939811702 127.48973826412876 13.134126648624438 H 0.0 **** 0.06
3900 H 15.831608497421172 128.54851739302634 13.160463717474137 H 0.0 **** 0.06
3901 C 49.83646591141408 49.82766882825234 124.73945572394211 C 0.0 **** -0.24
3902 H 49.87173496157641 50.883908881934985 125.00969132248542 H 0.0 **** 0.06
3903 H 49.908924802268814 49.72737278778601 123.65613092465117 H 0.0 **** 0.06
3904 H 48.897346412471904 49.395986548715825 125.08320725541046 H 0.0 **** 0.06
3905 H 50.66985284882895 49.3059273396446 125.2096101751502 H 0.0 **** 0.06
3906 C 49.642577506997895 138.54283558479364 39.40687438912312 C 0.0 **** -0.24
3907 H 50.64524353249851 138.21718642089843 39.12909451075052 H 0.0 **** 0.06
3908 H 48.99700012995763 137.67159096953532 39.519732126256415 H 0.0 **** 0.06
3909 H 49.24393925155613 139.19387383123478 38.6287941041047 H 0.0 **** 0.06
3910 H 49.68585270177195 139.08729090560502 40.3501255985432 H 0.0 **** 0.06
3911 C 1.7453137842734918 18.154648052934988 18.71330829483321 C 0.0 **** -0.24
3912 H 2.230276685187391 19.101570212034986 18.949553045171285 H 0.0 **** 0.06
3913 H 1.1103161557525425 18.281905140557434 17.835996572533276 H 0.0 **** 0.06
3914 H 1.1359231144620026 17.838018274428585 19.56045339009853 H 0.0 **** 0.06
3915 H 2.503591751046656 17.39885387260052 18.508006384790804 H 0.0 **** 0.06
3916 C 78.72519270214518 124.27612199274245 51.65288028515408 C 0.0 **** -0.24
3917 H 79.22472162199922 125.00506144828964 52.29144377342563 H 0.0 **** 0.06
3918 H 77.86261765995758 124.74144786367276 51.17528910961717 H 0.0 **** 0.06
3919 H 78.39427833901834 123.43162767100944 52.25834476986691 H 0.0 **** 0.06
3920 H 79.42013264266554 123.92591434645712 50.89002823358295 H 0.0 **** 0.06
3921 C 98.50872007457235 150.82438924042162 156.48466525730265 C 0.0 **** -0.24
3922 H 97.97427340603323 151.40735833985846 157.23493986094238 H 0.0 **** 0.06
3923 H 98.53964969237774 151.38176233562143 155.5478628193642 H 0.0 **** 0.06
3924 H 97.99487349031452 149.8759265567603 156.32712662729938 H 0.0 **** 0.06
3925 H 99.5251956340023 150.63479122573273 156.82881086756515 H 0.0 **** 0.06
3926 C 166.08871239575615 61.57873884780996 63.79095118928717 C 0.0 **** -0.24
3927 H 166.5051972258147 62.56437344363171 64.00005410753141 H 0.0 **** 0.06
3928 H 166.50169470776763 60.85330591570323 64.49265759985485 H 0.0 **** 0.06
3929 H 166.34287773718188 61.285566908749544 62.772593018289626 H 0.0 **** 0.06
3930 H 165.0042074518771 61.611905757537144 63.898947441498535 H 0.0 **** 0.06
3931 C 94.07475262188254 122.88811592373284 172.2136258027585 C 0.0 **** -0.24
3932 H 94.27433535358867 123.56794300501954 173.04262887251286 H 0.0 **** 0.06
3933 H 93.02980362613542 122.57800639469332 172.24328866555453 H 0.0 **** 0.06
3934 H 94.71704609681132 122.01193151170145 172.29998633716383 H 0.0 **** 0.06
3935 H 94.27717805089424 123.39627079479382 171.27099345238616 H 0.0 **** 0.06
3936 C 134.98418249763816 66.33130030096265 122.28154818073446 C 0.0 **** -0.24
3937 H 134.74856965258445 65.26882623291155 122.3487839513175 H 0.0 **** 0.06
3938 H 134.64720794777207 66.8346561639678 123.18737553431595 H 0.0 **** 0.06
3939 H 134.4781614816235 66.76117288697162 121.41722215965589 H 0.0 **** 0.06
3940 H 136.06081231612336 66.45829106285439 122.17284336636448 H 0.0 **** 0.06
3941 C 90.49539586520615 62.91903613149094 35.05576888583039 C 0.0 **** -0.24
3942 H 90.17328593848077 63.49826023323874 34.190410682533525 H 0.0 **** 0.06
3943 H 91.3171247012317 63.435082897172435 35.5519388468407 H 0.0 **** 0.06
3944 H 90.82735665787567 61.93370578146494 34.72867667044102 H 0.0 **** 0.06
3945 H 89.66201928189315 62.810119650570755 35.749657096437545 H 0.0 **** 0.06
3946 C 19.975714575775086 35.21541358052154 107.281106970394 C 0.0 **** -0.24
3947 H 19.57273668101758 34.94219453825417 106.3058268263664 H 0.0 **** 0.06
3948 H 20.90600041035119 35.76809766289021 107.14767619187037 H 0.0 **** 0.06
3949 H 20.167784494415073 34.313190940810074 107.86157973683348 H 0.0 **** 0.06
3950 H 19.254387241924313 35.839568070851556 107.80884671944034 H 0.0 **** 0.06
3951 C 155.44716415228817 115.58559318261396 148.14739182538 C 0.0 **** -0.24
3952 H 154.6054562630481 115.90652758103545 147.5339693636925 H 0.0 **** 0.06
3953 H 156.15344215393648 115.02865905353605 147.5322414973713 H 0.0 **** 0.06
3954 H 155.08548821634298 114.94745900000791 148.9545717979974 H 0.0 **** 0.06
3955 H 155.94321642921227 116.45920419357734 148.57005613627155 H 0.0 **** 0.06
3956 C 134.84286168364605 38.23669561279206 164.20649891188478 C 0.0 **** -0.24
3957 H 134.10644714358006 37.52136470229249 164.57146257248942 H 0.0 **** 0.06
3958 H 135.20089006278056 37.920883975741276 163.2256901002072 H 0.0 **** 0.06
3959 H 135.68106825550748 38.283955176179234 164.90170137329335 H 0.0 **** 0.06
3960 H 134.38198661207917 39.22120542383817 164.12527213139452 H 0.0 **** 0.06
3961 C 112.45466339721472 37.959130157692584 122.18828932843076 C 0.0 **** -0.24
3962 H 112.89063169760422 36.982712690820904 121.97854010113014 H 0.0 **** 0.06
3963 H 113.18026799953452 38.57299179062943 122.72320154516737 H 0.0 **** 0.06
3964 H 111.5624517263926 37.83440823290687 122.80091476665353 H 0.0 **** 0.06
3965 H 112.18704163330807 38.44550106772829 121.2508907575855 H 0.0 **** 0.06
3966 C 123.90565550563798 67.68027451083131 75.01351488967411 C 0.0 **** -0.24
3967 H 124.19482667040455 68.70481528822668 75.25062553405463 H 0.0 **** 0.06
3968 H 124.28545696688155 67.41615819646789 74.02692602549588 H 0.0 **** 0.06
3969 H 122.81917776121986 67.60001170527919 75.01935823154356 H 0.0 **** 0.06
3970 H 124.32407307852503 67.00378665968255 75.75906577298834 H 0.0 **** 0.06
3971 C 31.01965475235049 168.51958669330926 93.04380389478308 C 0.0 **** -0.24
3972 H 30.156544883307077 168.642944280245 93.69794947808779 H 0.0 **** 0.06
3973 H 31.905865681183144 168.31695105947466 93.64702129836053 H 0.0 **** 0.06
3974 H 31.172135495957647 169.4322947829401 92.4679169734058 H 0.0 **** 0.06
3975 H 30.843682284026656 167.68544766851764 92.36463973172982 H 0.0 **** 0.06
3976 C 19.884747175173715 117.21872056048443 102.8434794323291 C 0.0 **** -0.24
3977 H 18.979724998914037 116.6124578128211 102.87979088649485 H 0.0 **** 0.06
3978 H 20.485436891293432 116.92252400934206 101.98304949599532 H 0.0 **** 0.06
3979 H 20.45863509180964 117.06903396328215 103.75781457726822 H 0.0 **** 0.06
3980 H 19.61327249444588 118.27031329554524 102.75336622506623 H 0.0 **** 0.06
3981 C 83.95711549030518 61.53548528767968 139.8044638414699 C 0.0 **** -0.24
3982 H 85.00988356017743 61.81957187372066 139.81024436309514 H 0.0 **** 0.06
3983 H 83.45730856194122 61.97499225982321 140.66747764867213 H 0.0 **** 0.06
3984 H 83.87507258780242 60.44962531727799 139.84985399151645 H 0.0 **** 0.06
3985 H 83.48938441667669 61.897850341702 138.88936691867633 H 0.0 **** 0.06
3986 C 108.37162689110201 40.75190746713926 5.071091429021465 C 0.0 **** -0.24
3987 H 109.14724210858554 40.88524784781258 4.317852739166881 H 0.0 **** 0.06
3988 H 108.62908932500193 39.906801441842106 5.711398505884318 H 0.0 **** 0.06
3989 H 107.41842537480304 40.556934815778135 4.57980056203786 H 0.0 **** 0.06
3990 H 108.29149971750343 41.65538657456919 5.675875137005335 H 0.0 **** 0.06
3991 C 92.88345678627047 85.75047060210551 65.44451141459697 C 0.0 **** -0.24
3992 H 93.81087600901853 85.29154023502161 65.10183417604053 H 0.0 **** 0.06
3993 H 92.15431133541054 84.9724575281902 65.66856883352705 H 0.0 **** 0.06
3994 H 92.49141791030195 86.40245077515937 64.66302718733853 H 0.0 **** 0.06
3995 H 93.07919470118449 86.33618728280862 66.34248458419317 H 0.0 **** 0.06
3996 C 123.44765203754349 49.863587722486386 20.649625636031715 C 0.0 **** -0.24
3997 H 123.3257525469956 49.5287109211813 21.680032470725052 H 0.0 **** 0.06
3998 H 124.15857233890091 49.214484364693874 20.13854605646975 H 0.0 **** 0.06
3999 H 123.8189877505942 50.88796517685455 20.641639279676212 H 0.0 **** 0.06
4000 H 122.4850455583067 49.822225705766755 20.138199996938795 H 0.0 **** 0.06
4001 C 130.81674117986063 118.02786861852397 119.37422645717245 C 0.0 **** -0.24
4002 H 131.09598194560857 116.97971123855308 119.26829308661442 H 0.0 **** 0.06
4003 H 130.3960773589257 118.38848096225189 118.43577887706246 H 0.0 **** 0.06
4004 H 131.70036835512457 118.61539827324728 119.62646274939686 H 0.0 **** 0.06
4005 H 130.07567801447703 118.12747959341303 120.1671023703793 H 0.0 **** 0.06
4006 C 127.64294538342969 40.51573317904888 62.41820993487069 C 0.0 **** -0.24
4007 H 127.65041275200525 41.53680889499839 62.79977488301604 H 0.0 **** 0.06
4008 H 126.90443753533296 39.928627212676304 62.96586583136515 H 0.0 **** 0.06
4009 H 128.62938698045875 40.07216080197139 62.55005333412841 H 0.0 **** 0.06
4010 H 127.38659285339659 40.525141927510276 61.35939455573502 H 0.0 **** 0.06
4011 C 135.12799729945914 127.34737144264389 147.73048376230653 C 0.0 **** -0.24
4012 H 135.88077587197586 127.08119058059322 148.47202562570635 H 0.0 **** 0.06
4013 H 134.136960689987 127.11042338767052 148.11659413868244 H 0.0 **** 0.06
4014 H 135.30597890010574 126.78370602588996 146.81448865188216 H 0.0 **** 0.06
4015 H 135.19024518212382 128.41476728214454 147.51795960943082 H 0.0 **** 0.06
4016 C 52.076092678755586 60.18349916793615 86.7524199850227 C 0.0 **** -0.24
4017 H 51.45663236629298 59.518983234817256 87.35439396226508 H 0.0 **** 0.06
4018 H 52.227526395427006 59.74311961549503 85.76645198893374 H 0.0 **** 0.06
4019 H 53.04086453989545 60.32087660618964 87.24112939906195 H 0.0 **** 0.06
4020 H 51.58078121315192 61.14769860155913 86.64866968700375 H 0.0 **** 0.06
4021 C 75.56294447380841 152.47579380520614 33.214181265236334 C 0.0 **** -0.24
4022 H 75.54116794131365 153.21224256871852 32.41166263500534 H 0.0 **** 0.06
4023 H 74.56085012373664 152.35633348574396 33.62609670758337 H 0.0 **** 0.06
4024 H 76.24073318719545 152.81365239222106 33.99889538787744 H 0.0 **** 0.06
4025 H 75.91117374972286 151.52043278026338 32.82042512988886 H 0.0 **** 0.06
4026 C 26.369822920653235 106.20413705604571 57.106448693556985 C 0.0 **** -0.24
4027 H 25.65616388428805 107.01261758457434 56.9478573956045 H 0.0 **** 0.06
4028 H 27.38363102415252 106.60342505463433 57.0767264964129 H 0.0 **** 0.06
4029 H 26.250014653347705 105.45592355331914 56.322718684538756 H 0.0 **** 0.06
4030 H 26.186705956613196 105.74442920973698 58.077972793026845 H 0.0 **** 0.06
4031 C 108.16201338385298 86.93397700765208 74.09846550047331 C 0.0 **** -0.24
4032 H 107.59965917609469 86.18267797156801 73.54300558305628 H 0.0 **** 0.06
4033 H 107.53952535158533 87.3322088243656 74.90075491260984 H 0.0 **** 0.06
4034 H 108.45082046277469 87.74185680796076 73.42665982553804 H 0.0 **** 0.06
4035 H 109.0550639216496 86.47734883221071 74.52478184163456 H 0.0 **** 0.06
4036 C 13.498870935927428 73.16208873549766 0.22311195419879937 C 0.0 **** -0.24
4037 H 12.940700316435588 73.6847783305019 -0.5535960539494909 H 0.0 **** 0.06
4038 H 14.122931750772224 72.39308101399652 -0.23323159599914334 H 0.0 **** 0.06
4039 H 12.800977940484643 72.69780691061192 0.9207436424996445 H 0.0 **** 0.06
4040 H 14.128475038191013 73.87229343963364 0.7588321506408988 H 0.0 **** 0.06
4041 C 26.14412118193883 164.34361785087526 151.80370659376877 C 0.0 **** -0.24
4042 H 25.976212312380824 163.58151383767205 151.04228208138645 H 0.0 **** 0.06
4043 H 25.18734241165882 164.7690066189925 152.10890981393223 H 0.0 **** 0.06
4044 H 26.778438664291173 165.12977081625758 151.39623636807463 H 0.0 **** 0.06
4045 H 26.63352882471048 163.89217352522994 152.66637475055768 H 0.0 **** 0.06
4046 C 77.9878610140591 10.808322604799457 159.99692195791482 C 0.0 **** -0.24
4047 H 78.69940671354411 11.616956259399444 159.83412921950446 H 0.0 **** 0.06
4048 H 77.53813556706986 10.523488211773099 159.04543701699956 H 0.0 **** 0.06
4049 H 77.20726853424081 11.143305037281152 160.68174923766995 H 0.0 **** 0.06
4050 H 78.50386783278586 9.95085771404402 160.42764469848495 H 0.0 **** 0.06
4051 C 85.95458453326705 150.168079974946 148.02013971732967 C 0.0 **** -0.24
4052 H 84.99714140252462 150.4940725615096 147.61340432633247 H 0.0 **** 0.06
4053 H 86.76242929378031 150.70345750537862 147.52246422577173 H 0.0 **** 0.06
4054 H 86.07255434560199 149.09668795604549 147.85433114274045 H 0.0 **** 0.06
4055 H 85.98409198239347 150.3758579867375 149.08967643434994 H 0.0 **** 0.06
4056 C 153.66200707604216 17.568710336416245 154.91930394872907 C 0.0 **** -0.24
4057 H 153.20230702336394 16.631894231043873 154.6046841359386 H 0.0 **** 0.06
4058 H 154.66189196769122 17.37062919607473 155.30666202188405 H 0.0 **** 0.06
4059 H 153.05450532437612 18.028231492616072 155.69863770209093 H 0.0 **** 0.06
4060 H 153.73088955438655 18.244918549604563 154.06630636160372 H 0.0 **** 0.06
4061 C 169.0187315598207 127.19673384110354 126.53052153797256 C 0.0 **** -0.24
4062 H 168.75119479469927 128.15513894937936 126.9759616852296 H 0.0 **** 0.06
4063 H 170.08377052926983 127.18915256514177 126.29685141369208 H 0.0 **** 0.06
4064 H 168.44451283985802 127.04939111129829 125.61487520050719 H 0.0 **** 0.06
4065 H 168.79388756431007 126.39434758230703 127.23230827220101 H 0.0 **** 0.06
4066 C 169.16925444051014 149.16070478943723 108.79032331468022 C 0.0 **** -0.24
4067 H 169.21744802017935 150.22677930613068 108.56988586328919 H 0.0 **** 0.06
4068 H 168.18379574096934 148.9165929721416 109.18886665959963 H 0.0 **** 0.06
4069 H 169.9319875981846 148.9074831950584 109.5264178253301 H 0.0 **** 0.06
4070 H 169.3422458566739 148.59273242419465 107.87593359364814 H 0.0 **** 0.06
4071 C 113.94872116525272 37.697833945887 155.4160839350984 C 0.0 **** -0.24
4072 H 113.62775315894788 38.38128160408169 156.20265881553271 H 0.0 **** 0.06
4073 H 114.97793103074679 37.38977292908527 155.60046302720596 H 0.0 **** 0.06
4074 H 113.88678473730715 38.20082517619571 154.4507710832924 H 0.0 **** 0.06
4075 H 113.30137198981924 36.820683337694504 155.41107882233516 H 0.0 **** 0.06
4076 C 107.236602508859 62.31770608190752 7.942485190683641 C 0.0 **** -0.24
4077 H 106.66809670919358 62.85044617454675 8.705132782652015 H 0.0 **** 0.06
4078 H 106.82388848157157 61.31706599702548 7.8139404973057935 H 0.0 **** 0.06
4079 H 108.2787522444693 62.24385088393244 8.253783331807142 H 0.0 **** 0.06
4080 H 107.17630729426293 62.8599579552959 6.998617302322714 H 0.0 **** 0.06
4081 C 38.370659262617664 143.71039821276565 172.2802796274466 C 0.0 **** -0.24
4082 H 37.94594958529143 144.37238357426753 173.03449195672397 H 0.0 **** 0.06
4083 H 39.45012324229282 143.6493599760031 172.41536112311263 H 0.0 **** 0.06
4084 H 38.15022967371942 144.1025405304033 171.28726734481796 H 0.0 **** 0.06
4085 H 37.934404502736186 142.71606227762186 172.38314876531678 H 0.0 **** 0.06
4086 C 139.19728231021395 99.45796766210057 85.53104723936437 C 0.0 **** -0.24
4087 H 139.41335150942598 100.4311269606307 85.97200785866447 H 0.0 **** 0.06
4088 H 138.33243588515097 99.540878200804 84.872454267998 H 0.0 **** 0.06
4089 H 138.98443881332395 98.73985696026179 86.3229795924498 H 0.0 **** 0.06
4090 H 140.06031611959048 99.12100939441785 84.9557464577945 H 0.0 **** 0.06
4091 C 89.25484015679753 77.36907721952244 67.98818840436086 C 0.0 **** -0.24
4092 H 88.22889628446657 77.70242343155321 68.1484497347294 H 0.0 **** 0.06
4093 H 89.8139912155447 77.45536827035887 68.92053285157543 H 0.0 **** 0.06
4094 H 89.7226878506643 77.99058822987446 67.22459244568387 H 0.0 **** 0.06
4095 H 89.2521290083144 76.33015145644728 67.6607009203809 H 0.0 **** 0.06
4096 C 29.631384875950047 142.29389300133155 86.09207427907114 C 0.0 **** -0.24
4097 H 30.282360667081164 141.9063087348875 86.8747517976728 H 0.0 **** 0.06
4098 H 30.072169395213038 142.084698128776 85.11656428846834 H 0.0 **** 0.06
4099 H 29.51583801889302 143.3704096315142 86.21545594666549 H 0.0 **** 0.06
4100 H 28.654977848352914 141.81384955529418 86.16059290937123 H 0.0 **** 0.06
4101 C 166.58919507071008 85.21566383769465 48.908097043445636 C 0.0 **** -0.24
4102 H 165.65792863075723 84.74495248023828 48.59190115407749 H 0.0 **** 0.06
4103 H 167.32244490530482 84.44457417897496 49.14567359816725 H 0.0 **** 0.06
4104 H 166.4056188331865 85.82653412206753 49.791517341564315 H 0.0 **** 0.06
4105 H 166.9705030750663 85.84438694677374 48.10350917286732 H 0.0 **** 0.06
4106 C 97.93055674733998 0.8167640422669251 127.00309595840665 C 0.0 **** -0.24
4107 H 98.43355222302739 -0.027662607794411542 127.47376075919536 H 0.0 **** 0.06
4108 H 98.47780328217488 1.1115017889048886 126.10704177018533 H 0.0 **** 0.06
4109 H 97.89800333191633 1.6541247813481732 127.70061977270544 H 0.0 **** 0.06
4110 H 96.91502206911 0.5301567453400935 126.73143857137546 H 0.0 **** 0.06
4111 C 82.96058955493532 154.58313126588664 152.53465641682808 C 0.0 **** -0.24
4112 H 83.64112305681147 153.86813082862528 152.99709313169808 H 0.0 **** 0.06
4113 H 83.15455096554774 154.62817503856076 151.46329690814656 H 0.0 **** 0.06
4114 H 83.11549511930042 155.56815042854714 152.97486511580442 H 0.0 **** 0.06
4115 H 81.9312472342956 154.2667774620631 152.7054512122436 H 0.0 **** 0.06
4116 C 35.68603085621743 145.71241295888504 98.94927797381075 C 0.0 **** -0.24
4117 H 36.456716998902635 145.05945364670058 99.36062968561691 H 0.0 **** 0.06
4118 H 35.23259567058929 146.29083276004783 99.75436943312121 H 0.0 **** 0.06
4119 H 34.92247460750937 145.10862210899884 98.46031518427316 H 0.0 **** 0.06
4120 H 36.13432366697606 146.39049820244844 98.22279249169597 H 0.0 **** 0.06
4121 C 8.962690261185912 54.70901451427221 24.962806333792003 C 0.0 **** -0.24
4122 H 8.969753062629508 53.974898289537634 25.76768746435718 H 0.0 **** 0.06
4123 H 9.693273636805209 55.49046752309292 25.177658330653856 H 0.0 **** 0.06
4124 H 7.969414127210783 55.152062748964056 24.884206108747634 H 0.0 **** 0.06
4125 H 9.218599876677771 54.22110891365389 24.02300553505563 H 0.0 **** 0.06
4126 C 25.493748985893774 40.69887129369397 165.58369881055796 C 0.0 **** -0.24
4127 H 25.332950184218532 39.650285442816426 165.33510553194492 H 0.0 **** 0.06
4128 H 26.09636425978607 40.769269093380785 166.48930698740526 H 0.0 **** 0.06
4129 H 24.532815525913463 41.18548922222675 165.74735708448202 H 0.0 **** 0.06
4130 H 26.0143634516823 41.19085156427383 164.76225790013564 H 0.0 **** 0.06
4131 C 136.7343552372156 74.85779338141916 87.88849833403526 C 0.0 **** -0.24
4132 H 136.7037453985207 74.20656886276832 87.01482685371928 H 0.0 **** 0.06
4133 H 135.76614730905294 75.34299610027648 88.01414836142192 H 0.0 **** 0.06
4134 H 137.50579340400623 75.61508564299736 87.74939130190313 H 0.0 **** 0.06
4135 H 136.96131481425618 74.26522341071467 88.77525951392653 H 0.0 **** 0.06
4136 C 83.47299651896043 24.59868142209637 61.04108967390923 C 0.0 **** -0.24
4137 H 84.40212690542154 24.116424446631356 60.7371157871124 H 0.0 **** 0.06
4138 H 83.6542189750432 25.20967671442795 61.92548006552656 H 0.0 **** 0.06
4139 H 82.72730621392634 23.8378175170983 61.27069642570069 H 0.0 **** 0.06
4140 H 83.11022879365896 25.23085771499523 60.23042827354442 H 0.0 **** 0.06
4141 C 94.16460591972847 49.73597481994801 75.89108235075241 C 0.0 **** -0.24
4142 H 93.60205595008122 49.572969170336364 74.97168533038761 H 0.0 **** 0.06
4143 H 93.47807868412858 50.0032865502597 76.69444215825052 H 0.0 **** 0.06
4144 H 94.88084768924014 50.54426287929323 75.74021037374729 H 0.0 **** 0.06
4145 H 94.6982428656842 48.82322809044041 76.15683639834434 H 0.0 **** 0.06
4146 C 65.8483204574439 162.5336780825657 126.94364548583096 C 0.0 **** -0.24
4147 H 66.74672855523424 162.61425891810558 126.33251147744116 H 0.0 **** 0.06
4148 H 65.85054559276554 163.32277950340293 127.69757271370673 H 0.0 **** 0.06
4149 H 65.8297183485233 161.5610011320016 127.43529647811224 H 0.0 **** 0.06
4150 H 64.96731799678207 162.6390857989427 126.31025929046623 H 0.0 **** 0.06
4151 C 100.59313516355698 70.30839674192225 45.06620540057217 C 0.0 **** -0.24
4152 H 100.09701096560673 69.8367751306869 45.914611569935204 H 0.0 **** 0.06
4153 H 101.25703855447017 69.58783387515459 44.587190093107495 H 0.0 **** 0.06
4154 H 101.1733698935544 71.16271413169973 45.41480494050647 H 0.0 **** 0.06
4155 H 99.844673204406 70.64581960633168 44.34899085742856 H 0.0 **** 0.06
4156 C 58.057606567576386 34.38789154868192 32.88021826448215 C 0.0 **** -0.24
4157 H 57.09347031579303 34.46415865814805 32.376796154549226 H 0.0 **** 0.06
4158 H 58.577207923991935 35.34400507987084 32.817008045427784 H 0.0 **** 0.06
4159 H 58.65718519521087 33.61484463213151 32.399288823583746 H 0.0 **** 0.06
4160 H 57.90027252578356 34.12637965380196 33.92677486691993 H 0.0 **** 0.06
4161 C 162.68932401242625 18.34612059574294 105.41334559075281 C 0.0 **** -0.24
4162 H 162.71306765203474 17.257288640008383 105.41276132144853 H 0.0 **** 0.06
4163 H 163.7077762591801 18.731833796967223 105.35850438060453 H 0.0 **** 0.06
4164 H 162.2161529700546 18.6990573201912 106.32983346665188 H 0.0 **** 0.06
4165 H 162.1212202554401 18.697366905054118 104.55242090513977 H 0.0 **** 0.06
4166 C 73.44418088014925 150.46330637770632 150.10472309161617 C 0.0 **** -0.24
4167 H 74.43681986550092 150.32236323476937 150.53237488887513 H 0.0 **** 0.06
4168 H 73.20679389480071 151.5268346807804 150.07899075986302 H 0.0 **** 0.06
4169 H 72.70801803791579 149.941004798352 150.71675621892396 H 0.0 **** 0.06
4170 H 73.42500465271638 150.06114090652258 149.091442078374 H 0.0 **** 0.06
4171 C 33.80828952240083 171.9421845757842 4.255902158977747 C 0.0 **** -0.24
4172 H 33.78386925905602 172.62441152872182 3.4066871125217446 H 0.0 **** 0.06
4173 H 34.546865324528724 172.28913470399405 4.978386464048576 H 0.0 **** 0.06
4174 H 34.077692620387054 170.94376403350438 3.9119783804012087 H 0.0 **** 0.06
4175 H 32.82558574113837 171.91254077082442 4.726380323684289 H 0.0 **** 0.06
4176 C 57.3120905234274 169.27179643565353 46.68427838464433 C 0.0 **** -0.24
4177 H 57.9650730257371 169.9096036927104 46.08767804282775 H 0.0 **** 0.06
4178 H 57.5669182952348 168.2265467859827 46.509927716611585 H 0.0 **** 0.06
4179 H 56.27498339898746 169.44658047044487 46.39747959318237 H 0.0 **** 0.06
4180 H 57.44204390069048 169.50770154775762 47.740604134648166 H 0.0 **** 0.06
4181 C 95.9337638235846 160.8242275651637 152.1982678798762 C 0.0 **** -0.24
4182 H 96.02403569008757 159.9264692153375 152.81068371109924 H 0.0 **** 0.06
4183 H 96.39822235281918 161.66480934618957 152.71560218205417 H 0.0 **** 0.06
4184 H 94.87991251025466 161.04108624498258 152.0244492958417 H 0.0 **** 0.06
4185 H 96.43381348483524 160.6633014234411 151.24310438429694 H 0.0 **** 0.06
4186 C 70.23950062368084 149.8735153898144 76.24417688786811 C 0.0 **** -0.24
4187 H 69.74740848804663 148.92666523373128 76.0232350855136 H 0.0 **** 0.06
4188 H 71.20721890131787 149.6813048223949 76.70790593389863 H 0.0 **** 0.06
4189 H 69.61879182625921 150.45538043256468 76.92545571670883 H 0.0 **** 0.06
4190 H 70.38449671542583 150.43194629718738 75.31942760397106 H 0.0 **** 0.06
4191 C 75.11174446191276 38.84323433122523 46.88007054582066 C 0.0 **** -0.24
4192 H 74.92531867334931 37.85886314358248 47.30987629927006 H 0.0 **** 0.06
4193 H 75.96245712382705 39.303745713364975 47.38197133999911 H 0.0 **** 0.06
4194 H 74.22887267510302 39.469548865813636 47.0124137693372 H 0.0 **** 0.06
4195 H 75.32709853116701 38.74042261988353 45.81667995344128 H 0.0 **** 0.06
4196 C 110.71213272290612 57.47203031995885 18.806020292561584 C 0.0 **** -0.24
4197 H 110.26488742425522 56.769988860790875 19.509148015287963 H 0.0 **** 0.06
4198 H 111.34607658578688 56.92799023758779 18.103776151429912 H 0.0 **** 0.06
4199 H 111.31439662609375 58.1994105434634 19.350511239397406 H 0.0 **** 0.06
4200 H 109.92453130337839 57.989184054321825 18.257861366780816 H 0.0 **** 0.06
4201 C 35.78464613598521 120.8108125211754 28.866501217932637 C 0.0 **** -0.24
4202 H 35.1716689041327 120.81712597544751 27.965149875950942 H 0.0 **** 0.06
4203 H 36.046529649185175 119.78306681441259 29.119574319556307 H 0.0 **** 0.06
4204 H 35.22667912733135 121.2575993478498 29.68911930735038 H 0.0 **** 0.06
4205 H 36.69444964639101 121.38470069742178 28.689953425497606 H 0.0 **** 0.06
4206 C 133.69449446146226 142.33483293638284 21.507807559932758 C 0.0 **** -0.24
4207 H 134.31109422475987 141.79730232358128 20.786905501634408 H 0.0 **** 0.06
4208 H 134.33493846651714 142.93648489879342 22.154185645396865 H 0.0 **** 0.06
4209 H 133.13595063043365 141.6211897396692 22.111778837387817 H 0.0 **** 0.06
4210 H 132.99948473714053 142.985495185018 20.97764033268072 H 0.0 **** 0.06
4211 C 13.745478404383732 24.249115339979966 27.714358173317862 C 0.0 **** -0.24
4212 H 14.434088508456455 23.52198081853068 28.14501314523568 H 0.0 **** 0.06
4213 H 14.11682368828238 25.25584345007813 27.901997017155054 H 0.0 **** 0.06
4214 H 12.762298669709224 24.132982824698274 28.17152341906194 H 0.0 **** 0.06
4215 H 13.66815737883033 24.08269004127002 26.63985630382564 H 0.0 **** 0.06
4216 C 90.50514948339621 54.27090238070588 170.8297320169936 C 0.0 **** -0.24
4217 H 90.8771785529234 53.89691369287587 171.78342851465737 H 0.0 **** 0.06
4218 H 90.99388074407581 53.73673189885534 170.01517518968933 H 0.0 **** 0.06
4219 H 90.72225672027922 55.33669036551157 170.74840153379375 H 0.0 **** 0.06
4220 H 89.42792243540033 54.11410617334542 170.77362477323118 H 0.0 **** 0.06
4221 C 92.44879156142287 149.39152381964482 156.1403273105632 C 0.0 **** -0.24
4222 H 92.50192520249286 150.43169464284398 155.817190048212 H 0.0 **** 0.06
4223 H 91.55892445145791 149.24711276129227 156.75337638712097 H 0.0 **** 0.06
4224 H 93.33648424723756 149.14601481883994 156.72319454109854 H 0.0 **** 0.06
4225 H 92.39715053065231 148.74280731738753 155.26506201924553 H 0.0 **** 0.06
4226 C 154.90444685284308 45.686056123097515 3.4698805903547623 C 0.0 **** -0.24
4227 H 154.14454355506967 45.8725524934202 4.228832677650189 H 0.0 **** 0.06
4228 H 154.83535262746264 44.65129068441851 3.1330279748790417 H 0.0 **** 0.06
4229 H 155.89247740842606 45.86607756968205 3.89428853404479 H 0.0 **** 0.06
4230 H 154.74472562668745 46.355532180678566 2.6247935433125917 H 0.0 **** 0.06
4231 C 160.85414951805453 82.56084642150574 49.98879937158591 C 0.0 **** -0.24
4232 H 160.54340575296754 83.1877201951894 50.824622780089825 H 0.0 **** 0.06
4233 H 160.96959958051664 81.53156226107251 50.33028966513187 H 0.0 **** 0.06
4234 H 161.80592748767182 82.92242912305528 49.598060501029664 H 0.0 **** 0.06
4235 H 160.09928251319343 82.6017646394555 49.204062047809614 H 0.0 **** 0.06
4236 C 126.38033828202626 42.02221565818708 67.43904293665666 C 0.0 **** -0.24
4237 H 127.18881404638353 41.84377213432876 68.14839972128094 H 0.0 **** 0.06
4238 H 126.32067477679848 43.087318861171184 67.2166882654121 H 0.0 **** 0.06
4239 H 125.43737587066198 41.68686830302765 67.87038527830688 H 0.0 **** 0.06
4240 H 126.57601881695422 41.46961670588762 66.51928331946779 H 0.0 **** 0.06
4241 C 138.27000650713453 89.87340751992991 80.5596258045023 C 0.0 **** -0.24
4242 H 138.43237267295248 90.67204606873736 81.28341091083055 H 0.0 **** 0.06
4243 H 139.1798307922878 89.7182934689717 79.97980636332417 H 0.0 **** 0.06
4244 H 137.45540640576655 90.1506504775071 79.89013777797003 H 0.0 **** 0.06
4245 H 138.01155721578874 88.95453550830194 81.08432984348602 H 0.0 **** 0.06
4246 C 132.0958191026257 150.03828786338045 58.50367799364335 C 0.0 **** -0.24
4247 H 132.4115632571724 149.0192809787218 58.281550184557204 H 0.0 **** 0.06
4248 H 131.23679122838863 150.01436972325644 59.174903175813085 H 0.0 **** 0.06
4249 H 131.82065450744398 150.54265795769658 57.57694045683439 H 0.0 **** 0.06
4250 H 132.91515834461958 150.57693831420974 58.980223999890086 H 0.0 **** 0.06
4251 C 136.9643815371331 157.6529571686209 18.08401605513575 C 0.0 **** -0.24
4252 H 136.05601580324227 157.58603304187835 17.485314093940644 H 0.0 **** 0.06
4253 H 136.70339783308356 157.89832649270505 19.113788167839203 H 0.0 **** 0.06
4254 H 137.60993830315388 158.4318345585997 17.676630864852854 H 0.0 **** 0.06
4255 H 137.48810404928048 156.69740373047978 18.058965323634396 H 0.0 **** 0.06
4256 C 52.40266890837559 86.76746113700821 86.74279479022894 C 0.0 **** -0.24
4257 H 53.37244137723482 86.97282710048756 86.29000637153882 H 0.0 **** 0.06
4258 H 52.52744543996728 86.61345559433045 87.81444411920785 H 0.0 **** 0.06
4259 H 51.97426093509604 85.87053669544265 86.29359173290155 H 0.0 **** 0.06
4260 H 51.73538881584304 87.61275727791197 86.57234269149477 H 0.0 **** 0.06
4261 C 36.313112996056304 4.278097851187681 34.98764704752881 C 0.0 **** -0.24
4262 H 37.14176546478765 3.7027543634607127 34.57433100169732 H 0.0 **** 0.06
4263 H 36.09979757945396 3.932637794387233 35.99889234386262 H 0.0 **** 0.06
4264 H 35.43004015137535 4.143632933729151 34.36333325640129 H 0.0 **** 0.06
4265 H 36.581536680401086 5.33441724059 35.013381655611 H 0.0 **** 0.06
4266 C 80.69080676220615 88.38444371081903 171.00272952538106 C 0.0 **** -0.24
4267 H 80.11754263821328 87.52551190106732 170.65365850198916 H 0.0 **** 0.06
4268 H 80.41342309597876 89.26625106254124 170.4236748393317 H 0.0 **** 0.06
4269 H 81.75552610083588 88.1868141432065 170.8748643815931 H 0.0 **** 0.06
4270 H 80.47799387437112 88.56006668634757 172.0568070393186 H 0.0 **** 0.06
4271 C 28.781699630380047 1.3672536670844053 135.08268208122172 C 0.0 **** -0.24
4272 H 28.572749917031956 2.3487673268197824 135.50917377049 H 0.0 **** 0.06
4273 H 28.194788135678834 1.2341206490469574 134.17341660531497 H 0.0 **** 0.06
4274 H 28.518027337196656 0.5939802627166202 135.80347006559248 H 0.0 **** 0.06
4275 H 29.84321309012273 1.2943465570455217 134.84417854149262 H 0.0 **** 0.06
4276 C 145.0227152867865 81.97233957196835 154.85590400594342 C 0.0 **** -0.24
4277 H 144.59463021526102 82.83520677066349 155.36598395114788 H 0.0 **** 0.06
4278 H 144.3578866695531 81.11613917610185 154.969846867216 H 0.0 **** 0.06
4279 H 145.99448916391 81.73910484990648 155.2915463971849 H 0.0 **** 0.06
4280 H 145.14485216300773 82.19984678935202 153.7965904288443 H 0.0 **** 0.06
4281 C 12.21454105437121 47.141700019922126 17.69317318910757 C 0.0 **** -0.24
4282 H 12.592813166965641 47.730382488350074 18.529377928869764 H 0.0 **** 0.06
4283 H 11.812771128548377 47.8107277263866 16.931253849670725 H 0.0 **** 0.06
4284 H 11.425649532066984 46.476228687124035 18.045230408081665 H 0.0 **** 0.06
4285 H 13.02545933016134 46.55066637606774 17.26837447654998 H 0.0 **** 0.06
4286 C 44.168896018309624 131.35314252401812 108.24911149376061 C 0.0 **** -0.24
4287 H 44.02783811353828 132.3919863345143 108.54988122381823 H 0.0 **** 0.06
4288 H 44.608515056483384 130.7930980376494 109.07384686445212 H 0.0 **** 0.06
4289 H 44.834450864860955 131.31325772252183 107.38624814341767 H 0.0 **** 0.06
4290 H 43.20538325516037 130.91852762907774 107.98608262332834 H 0.0 **** 0.06
4291 C 90.94724324967598 1.7872045647902723 102.22821805410297 C 0.0 **** -0.24
4292 H 91.39782991032422 1.255174094079166 103.06525472340098 H 0.0 **** 0.06
4293 H 89.90518116691123 1.4858876414260749 102.12527685989784 H 0.0 **** 0.06
4294 H 91.48785427273197 1.5482799962546778 101.31253855271262 H 0.0 **** 0.06
4295 H 90.99871519549794 2.8612638822626195 102.41100057495231 H 0.0 **** 0.06
4296 C 118.4158839803467 60.47069061694776 152.75729505007433 C 0.0 **** -0.24
4297 H 118.5219188253865 59.545801074127525 153.32386995085164 H 0.0 **** 0.06
4298 H 117.39223275749134 60.83490194757475 152.84419421296155 H 0.0 **** 0.06
4299 H 118.64662910183117 60.28307839967333 151.70896470552447 H 0.0 **** 0.06
4300 H 119.10354369999692 61.22015495587016 153.15216916493813 H 0.0 **** 0.06
4301 C 83.93144552322636 133.9284679644334 28.031604846317066 C 0.0 **** -0.24
4302 H 84.44098353289063 134.7649058875323 27.55392631020618 H 0.0 **** 0.06
4303 H 84.17139883157748 133.00684096654368 27.501331074276436 H 0.0 **** 0.06
4304 H 82.85447619377481 134.09450581631765 28.003467974555974 H 0.0 **** 0.06
4305 H 84.26015199009225 133.84872473574777 29.06821243125512 H 0.0 **** 0.06
4306 C 50.29681435326515 140.62756970877282 92.58707234162782 C 0.0 **** -0.24
4307 H 49.43901023501333 141.2408759064449 92.31202730129763 H 0.0 **** 0.06
4308 H 50.62747638793995 140.8963212631062 93.59018718926725 H 0.0 **** 0.06
4309 H 51.107569747182225 140.79901191613334 91.87817497394926 H 0.0 **** 0.06
4310 H 50.01302522277935 139.57535015725108 92.56732570787284 H 0.0 **** 0.06
4311 C 166.5850348580849 112.59553113141502 32.91673748292072 C 0.0 **** -0.24
4312 H 166.95409341157216 113.52459895070982 33.35146954241142 H 0.0 **** 0.06
4313 H 165.49885274517766 112.55853287378767 33.00747759329684 H 0.0 **** 0.06
4314 H 167.02290989276685 111.74818256082926 33.444349119549656 H 0.0 **** 0.06
4315 H 166.86300004037656 112.55062328495879 31.8642177447704 H 0.0 **** 0.06
4316 C 33.22121781954699 158.3830406193318 86.34520493774933 C 0.0 **** -0.24
4317 H 33.16056586330258 158.96834696302076 85.42872473825294 H 0.0 **** 0.06
4318 H 34.17114049208968 157.8484364421904 86.37342724624 H 0.0 **** 0.06
4319 H 32.39929312263857 157.66739059045977 86.37437730066179 H 0.0 **** 0.06
4320 H 33.153156031403185 159.0491546704268 87.20632217606621 H 0.0 **** 0.06
4321 C 91.32269649874048 100.6064377805329 69.20219688291968 C 0.0 **** -0.24
4322 H 92.30723772217081 101.07209378750485 69.17415735413039 H 0.0 **** 0.06
4323 H 91.22147356133425 100.02294597320997 70.11802789928254 H 0.0 **** 0.06
4324 H 91.20691649995865 99.95057712254763 68.33885859650076 H 0.0 **** 0.06
4325 H 90.55368859109822 101.3788324867663 69.17667326268699 H 0.0 **** 0.06
4326 C 141.86223473294908 72.86214819044056 78.80052455256563 C 0.0 **** -0.24
4327 H 142.10679819545663 72.21335380714191 79.64163022301693 H 0.0 **** 0.06
4328 H 142.59458767583922 72.71804636506704 78.00532328643602 H 0.0 **** 0.06
4329 H 141.87897370231315 73.90171107988516 79.12684950233816 H 0.0 **** 0.06
4330 H 140.86754571865114 72.61485654748259 78.42755962560597 H 0.0 **** 0.06
4331 C 158.35267628664323 52.27773785753078 132.15399325617813 C 0.0 **** -0.24
4332 H 157.9229532135456 53.1623455055763 131.6840362655072 H 0.0 **** 0.06
4333 H 159.31874033546598 52.05671535371954 131.69958759410903 H 0.0 **** 0.06
4334 H 157.6816786213962 51.429104666941214 132.01339068061415 H 0.0 **** 0.06
4335 H 158.48565487056246 52.46187223754043 133.2201200846952 H 0.0 **** 0.06
4336 C 60.661450968683766 167.7597072773936 47.678450386478175 C 0.0 **** -0.24
4337 H 60.000274870694525 168.61818353625182 47.560290049241985 H 0.0 **** 0.06
4338 H 60.13696412078315 166.85309850244738 47.375735543396274 H 0.0 **** 0.06
4339 H 60.963996085882115 167.67543624944818 48.721395726628316 H 0.0 **** 0.06
4340 H 61.54486668507296 167.8942700234682 47.053880343305536 H 0.0 **** 0.06
4341 C 3.033729865812475 82.20895750544136 72.46400576798334 C 0.0 **** -0.24
4342 H 1.9663720776549525 82.43015726063445 72.4679055148803 H 0.0 **** 0.06
4343 H 3.533190274076688 82.84835821551538 71.73540900245891 H 0.0 **** 0.06
4344 H 3.187520759965828 81.1634602886292 72.19644059601603 H 0.0 **** 0.06
4345 H 3.446969200872168 82.39575127685909 73.45546203987251 H 0.0 **** 0.06
4346 C 154.3710715207859 135.26181707171898 76.16946840485477 C 0.0 **** -0.24
4347 H 153.78826897230897 136.1555749825885 76.39235665566056 H 0.0 **** 0.06
4348 H 154.3151411821865 134.5724194147689 77.01230876440155 H 0.0 **** 0.06
4349 H 155.41003933104136 135.5400524046695 75.99473960320566 H 0.0 **** 0.06
4350 H 153.9692026727115 134.77977356890239 75.27830866982424 H 0.0 **** 0.06
4351 C 11.164671509720108 92.9952359133946 126.43271177027316 C 0.0 **** -0.24
4352 H 12.21385212879639 92.70020601536777 126.40909862561682 H 0.0 **** 0.06
4353 H 10.836619163450194 93.08722681932255 127.46755160562768 H 0.0 **** 0.06
4354 H 10.563670288606744 92.23987086364144 125.92551517655534 H 0.0 **** 0.06
4355 H 11.047090592595879 93.95383739971095 125.92656542149021 H 0.0 **** 0.06
4356 C 47.77544282183153 0.9711108692190464 36.848229227705176 C 0.0 **** -0.24
4357 H 47.67220273725869 0.7789768466784608 35.78024365235984 H 0.0 **** 0.06
4358 H 47.7422945612676 0.025942930896349026 37.390945517103845 H 0.0 **** 0.06
4359 H 46.959846953665846 1.6114835580229396 37.18314468844153 H 0.0 **** 0.06
4360 H 48.72802222725548 1.466423850514218 37.03715704794925 H 0.0 **** 0.06
4361 C 106.878298955287 159.28664532092736 120.67550158481669 C 0.0 **** -0.24
4362 H 105.917866768806 158.9175618746387 121.03478225449783 H 0.0 **** 0.06
4363 H 106.97047236055849 159.07698370509576 119.60891389034776 H 0.0 **** 0.06
4364 H 107.68390655345189 158.7892596403006 121.21550442242068 H 0.0 **** 0.06
4365 H 106.93883899894308 160.3622383142987 120.84074320867404 H 0.0 **** 0.06
4366 C 169.1144185527658 101.83124105060821 20.23649031495728 C 0.0 **** -0.24
4367 H 169.47994408050505 102.78036234494041 20.62855924230331 H 0.0 **** 0.06
4368 H 168.35971994740518 102.0190297498909 19.473655754411823 H 0.0 **** 0.06
4369 H 168.67614018337653 101.24843563629727 21.04640888756788 H 0.0 **** 0.06
4370 H 169.9447247102563 101.27627242610811 19.79766033895214 H 0.0 **** 0.06
4371 C 1.6502499372235206 92.30061881867385 58.786024945002964 C 0.0 **** -0.24
4372 H 1.3822733163874545 91.87404771359564 59.753117926205874 H 0.0 **** 0.06
4373 H 2.021997563703735 91.51257399010204 58.13092705712957 H 0.0 **** 0.06
4374 H 2.4251045630929866 93.05438653866375 58.924551867974856 H 0.0 **** 0.06
4375 H 0.7703293621702869 92.7622545934862 58.337147011521765 H 0.0 **** 0.06
4376 C 95.9132849012693 132.51418403586814 34.19986365580834 C 0.0 **** -0.24
4377 H 96.67012335827218 131.98760647022914 34.78131511929328 H 0.0 **** 0.06
4378 H 95.72639397153739 133.4912697965172 34.647188400302696 H 0.0 **** 0.06
4379 H 94.99021468356409 131.93379218959456 34.194775792384064 H 0.0 **** 0.06
4380 H 96.26686860999573 132.64412569068503 33.17751103337477 H 0.0 **** 0.06
4381 C 126.73106406877838 8.855993465401923 167.03611750933214 C 0.0 **** -0.24
4382 H 127.70477915451312 8.368082933575351 167.09162842783073 H 0.0 **** 0.06
4383 H 126.42635798860664 9.17073188867414 168.0347511481624 H 0.0 **** 0.06
4384 H 125.99731151494217 8.156031988274435 166.636165873735 H 0.0 **** 0.06
4385 H 126.79749865761659 9.726503758759122 166.38398834878646 H 0.0 **** 0.06
4386 C 42.29106448567899 44.82860494934083 21.240567809088304 C 0.0 **** -0.24
4387 H 43.006960741135146 44.268079340067516 21.84075673338728 H 0.0 **** 0.06
4388 H 41.64225902574023 44.13351368204319 20.706699081203254 H 0.0 **** 0.06
4389 H 42.8270444031248 45.44983939434893 20.522295224388643 H 0.0 **** 0.06
4390 H 41.68853540549634 45.462358586258574 21.89021554581302 H 0.0 **** 0.06
4391 C 169.8969398146314 124.13115976164602 0.956252339761889 C 0.0 **** -0.24
4392 H 169.48307881411316 125.05800149441203 0.559685012389366 H 0.0 **** 0.06
4393 H 170.26936143816934 124.30198260190807 1.9665398678159605 H 0.0 **** 0.06
4394 H 170.71557189009818 123.79679456397858 0.31870498180450824 H 0.0 **** 0.06
4395 H 169.1187844027524 123.36742864853795 0.9787058634485675 H 0.0 **** 0.06
4396 C 47.097200528781514 50.18603693461324 0.927543469297575 C 0.0 **** -0.24
4397 H 47.64739241061221 49.58186115682615 0.2057673790750414 H 0.0 **** 0.06
4398 H 47.48122964463428 49.99234296357601 1.9300620590883 H 0.0 **** 0.06
4399 H 46.03945356500759 49.92609412987278 0.8873529051888625 H 0.0 **** 0.06
4400 H 47.22165195394024 51.24189478212898 0.6881416718153162 H 0.0 **** 0.06
4401 C 164.0650325662918 112.42037766863476 91.2008723810029 C 0.0 **** -0.24
4402 H 163.67886613145384 112.51740540112249 90.18563431989342 H 0.0 **** 0.06
4403 H 165.14717824222387 112.29085721712173 91.16695486610354 H 0.0 **** 0.06
4404 H 163.60945873333662 111.5544216837348 91.68082643197314 H 0.0 **** 0.06
4405 H 163.82425110588034 113.31885482651 91.76810975564274 H 0.0 **** 0.06
4406 C 160.1642356488952 64.64141373104931 58.880739456245834 C 0.0 **** -0.24
4407 H 159.53392965592798 63.99244724524401 59.48936500774481 H 0.0 **** 0.06
4408 H 159.54147503910156 65.20011389289655 58.18206174960987 H 0.0 **** 0.06
4409 H 160.87985656253883 64.03521994137942 58.324643239227115 H 0.0 **** 0.06
4410 H 160.7004944191723 65.33628971009394 59.52660172873941 H 0.0 **** 0.06
4411 C 30.64160563697999 54.50879610390557 130.16539661157918 C 0.0 **** -0.24
4412 H 29.590992209188073 54.571963237233064 129.88370796007365 H 0.0 **** 0.06
4413 H 31.050178263634905 53.55461864274295 129.83355335080654 H 0.0 **** 0.06
4414 H 30.732626075190865 54.58675098426944 131.2492810755387 H 0.0 **** 0.06
4415 H 31.19346846006951 55.32372288357152 129.69593204432834 H 0.0 **** 0.06
4416 C 140.74901375959263 5.381972317782811 109.93455314918316 C 0.0 **** -0.24
4417 H 141.79054610333418 5.422950053090659 110.25559586790024 H 0.0 **** 0.06
4418 H 140.4307159017073 4.341313186001884 109.86896165839784 H 0.0 **** 0.06
4419 H 140.6512541011661 5.855852434051144 108.95872743687451 H 0.0 **** 0.06
4420 H 140.12571012389645 5.907435356958047 110.65869221191193 H 0.0 **** 0.06
4421 C 101.97149380890426 118.65577552575454 22.326093331554894 C 0.0 **** -0.24
4422 H 101.5822128188392 118.25315309939086 23.26184955546597 H 0.0 **** 0.06
4423 H 101.2362931660303 119.3321265088959 21.888938239500455 H 0.0 **** 0.06
4424 H 102.17009704478468 117.83875431981514 21.63358106081637 H 0.0 **** 0.06
4425 H 102.89571376330494 119.20019853265143 22.522234293463057 H 0.0 **** 0.06
4426 C 115.71767611493374 62.27690854915835 117.27193710539908 C 0.0 **** -0.24
4427 H 115.43701895256038 61.892704001542924 116.29122429832384 H 0.0 **** 0.06
4428 H 116.73217918001171 61.954786881317915 117.51046676097403 H 0.0 **** 0.06
4429 H 115.02794237578178 61.89163245353791 118.02375617973871 H 0.0 **** 0.06
4430 H 115.67328739866267 63.365530536428324 117.2625047507045 H 0.0 **** 0.06
4431 C 60.20905948684117 22.100248831243597 23.513630086426538 C 0.0 **** -0.24
4432 H 60.909695507810966 22.60472296914442 24.178968492161395 H 0.0 **** 0.06
4433 H 59.661438423885954 21.341507285614092 24.071964754319545 H 0.0 **** 0.06
4434 H 60.758000705931636 21.627817020518535 22.699953329231683 H 0.0 **** 0.06
4435 H 59.50820416307238 22.828490928106447 23.10482027233484 H 0.0 **** 0.06
4436 C 120.75121409283432 85.16114844452335 103.7992447074974 C 0.0 **** -0.24
4437 H 119.7162591957291 84.92103927728982 104.04204323205482 H 0.0 **** 0.06
4438 H 121.41694913807638 84.63218601616697 104.48185572993651 H 0.0 **** 0.06
4439 H 120.90702773588868 86.23602508401366 103.89879139949426 H 0.0 **** 0.06
4440 H 120.96402764766583 84.85721959368509 102.7746473174746 H 0.0 **** 0.06
4441 C 6.889521804442154 12.741806272914403 128.1032747198399 C 0.0 **** -0.24
4442 H 7.2780373095714594 12.247867604088015 127.21229183707456 H 0.0 **** 0.06
4443 H 5.929783153320756 13.203894358896775 127.87178711679485 H 0.0 **** 0.06
4444 H 7.593698574829688 13.506619490124649 128.43052996914068 H 0.0 **** 0.06
4445 H 6.7562709595325146 12.006295698677661 128.89693434914653 H 0.0 **** 0.06
4446 C 17.99713736125883 44.23187653192991 73.72701144665604 C 0.0 **** -0.24
4447 H 18.945504836635678 43.79093935475626 73.42234329627227 H 0.0 **** 0.06
4448 H 18.10034603979898 44.664643606921004 74.72209979125113 H 0.0 **** 0.06
4449 H 17.227260380864422 43.46001467174091 73.74470065757706 H 0.0 **** 0.06
4450 H 17.71464486332316 45.01137054354645 73.01918712623495 H 0.0 **** 0.06
4451 C 69.52234992503462 37.57040084262559 145.16221727692493 C 0.0 **** -0.24
4452 H 69.36255525046144 37.38921719606242 146.22544131394574 H 0.0 **** 0.06
4453 H 70.44522972220055 37.08357595616917 144.84628436226131 H 0.0 **** 0.06
4454 H 69.59740759358569 38.64372508467915 144.9847218334388 H 0.0 **** 0.06
4455 H 68.68413709830267 37.166237755576844 144.59553075627224 H 0.0 **** 0.06
4456 C 130.25767030662044 15.80140437221155 154.2814389421023 C 0.0 **** -0.24
4457 H 129.63222091060936 16.661753697369534 154.51860188960546 H 0.0 **** 0.06
4458 H 129.62417317914338 14.935263863400081 154.08687216946524 H 0.0 **** 0.06
4459 H 130.91604287292407 15.58824276117798 155.12370426974292 H 0.0 **** 0.06
4460 H 130.8567373590144 16.02050729053667 153.39741814444346 H 0.0 **** 0.06
4461 C 120.74148652404506 63.801697085157315 82.71541051548617 C 0.0 **** -0.24
4462 H 121.70061904313687 63.53870786093067 83.16005377425832 H 0.0 **** 0.06
4463 H 120.23489307844198 62.89622066143791 82.3802825810425 H 0.0 **** 0.06
4464 H 120.90418529417744 64.4631165344765 81.86392438426957 H 0.0 **** 0.06
4465 H 120.12448494931613 64.31063109030072 83.45622994815558 H 0.0 **** 0.06
4466 C 10.963381343912005 6.560618423684936 66.64382141524123 C 0.0 **** -0.24
4467 H 11.378119628234288 5.90699175179634 67.41231641347512 H 0.0 **** 0.06
4468 H 9.89886933561067 6.705598742920216 66.82771832663573 H 0.0 **** 0.06
4469 H 11.104838209621562 6.10610395454772 65.66425687796117 H 0.0 **** 0.06
4470 H 11.472589593818725 7.524074622831407 66.67461599874743 H 0.0 **** 0.06
4471 C 122.51400867938867 79.37836063183727 92.19585763009624 C 0.0 **** -0.24
4472 H 122.90086502224136 79.93140326364369 93.05172280644771 H 0.0 **** 0.06
4473 H 123.02891415449142 78.42037600731828 92.11901353807016 H 0.0 **** 0.06
4474 H 122.68055930821123 79.95469882201348 91.28581732169071 H 0.0 **** 0.06
4475 H 121.44516087163692 79.20760501617701 92.32632633486466 H 0.0 **** 0.06
4476 C 123.820538830392 35.10038365073393 39.69704630750128 C 0.0 **** -0.24
4477 H 123.50005295074709 34.680126019151515 38.74370716988196 H 0.0 **** 0.06
4478 H 124.58063575729832 35.86188216678704 39.520694743222876 H 0.0 **** 0.06
4479 H 124.2354452246222 34.309691855973455 40.3210641891873 H 0.0 **** 0.06
4480 H 122.96465356487849 35.550160289554356 40.20098042186457 H 0.0 **** 0.06
4481 C 99.15112217033715 10.079500417980256 166.2377092818171 C 0.0 **** -0.24
4482 H 98.35606552644808 10.213151618438332 166.97093193587023 H 0.0 **** 0.06
4483 H 98.72684599774732 10.1038571725054 165.2334714162276 H 0.0 **** 0.06
4484 H 99.63961098280913 9.118825003739062 166.40284144920278 H 0.0 **** 0.06
4485 H 99.88173162003639 10.881292151898464 166.34317028646933 H 0.0 **** 0.06
4486 C 90.34263712443584 25.4366894147295 100.2107000557018 C 0.0 **** -0.24
4487 H 90.41204281871393 26.433738782939805 99.77509288398363 H 0.0 **** 0.06
4488 H 89.51791030470486 25.40871919100887 100.92357771260555 H 0.0 **** 0.06
4489 H 91.27502798162897 25.198759071948324 100.72342575950262 H 0.0 **** 0.06
4490 H 90.16628093910651 24.707109523256456 99.42087549418363 H 0.0 **** 0.06
4491 C 159.36638301796236 9.379516054643545 3.469838172157395 C 0.0 **** -0.24
4492 H 158.38395138326186 8.968840366532987 3.703137875581568 H 0.0 **** 0.06
4493 H 159.3160277040737 10.469178641053333 3.484905743754915 H 0.0 **** 0.06
4494 H 159.67476088089427 9.043176522814178 2.4808255587240353 H 0.0 **** 0.06
4495 H 160.08752545602442 9.038156308118715 4.2117763521724925 H 0.0 **** 0.06
4496 C 63.74924655684329 147.54698503861636 167.5172548926688 C 0.0 **** -0.24
4497 H 64.0985238979887 146.73158617373048 168.15084641791967 H 0.0 **** 0.06
4498 H 64.49645297483359 147.7575314862838 166.75170805265589 H 0.0 **** 0.06
4499 H 63.59128702147345 148.43707933434618 168.12673674739906 H 0.0 **** 0.06
4500 H 62.81128401611912 147.26128001404985 167.04094081455827 H 0.0 **** 0.06
4501 C 36.10849592414294 59.56092725723971 30.573090297453632 C 0.0 **** -0.24
4502 H 36.97679413558484 60.04941975439053 30.129685841920093 H 0.0 **** 0.06
4503 H 35.261104896298605 59.63919987517295 29.89247586213645 H 0.0 **** 0.06
4504 H 35.86281409896566 60.04701171221103 31.517452801138745 H 0.0 **** 0.06
4505 H 36.33527724211308 58.510511123705385 30.75297453518573 H 0.0 **** 0.06
4506 C 81.85381716324603 146.9593201150539 83.38725024603168 C 0.0 **** -0.24
4507 H 81.38160746868272 145.99462198303473 83.20400265841671 H 0.0 **** 0.06
4508 H 82.52550951944811 146.87813318141536 84.24251001766345 H 0.0 **** 0.06
4509 H 81.0878184482232 147.705312151827 83.59543284053846 H 0.0 **** 0.06
4510 H 82.42215918410879 147.25811263338915 82.50638103518644 H 0.0 **** 0.06
4511 C 114.20139209602513 15.477018857937196 84.44508216604282 C 0.0 **** -0.24
4512 H 113.8396164436711 16.50439193276162 84.41828478982364 H 0.0 **** 0.06
4513 H 113.77546407590813 14.920426905271341 83.61003191813171 H 0.0 **** 0.06
4514 H 113.90089647836828 15.010321798060431 85.38387045958478 H 0.0 **** 0.06
4515 H 115.28883743386046 15.47251750135814 84.36926286957294 H 0.0 **** 0.06
4516 C 10.117588899089753 10.134260526392666 37.385221056949774 C 0.0 **** -0.24
4517 H 10.738471708325164 9.246312023414731 37.50410830482264 H 0.0 **** 0.06
4518 H 9.072891428728553 9.838098428909461 37.299097028286496 H 0.0 **** 0.06
4519 H 10.419452169613407 10.670291066943236 36.4848027978783 H 0.0 **** 0.06
4520 H 10.24177161663414 10.78281018284207 38.25198120756744 H 0.0 **** 0.06
4521 C 53.64848024781139 160.57869583216726 119.52473992894039 C 0.0 **** -0.24
4522 H 52.606173384822114 160.7237869901785 119.24026646443463 H 0.0 **** 0.06
4523 H 53.87124146713441 159.51201867904564 119.55771699037336 H 0.0 **** 0.06
4524 H 53.820973165963835 161.01757058142744 120.50705419149881 H 0.0 **** 0.06
4525 H 54.29492311314826 161.06260296049044 118.79187314210915 H 0.0 **** 0.06
4526 C 107.66505847131265 44.148064303624395 0.6312894668120919 C 0.0 **** -0.24
4527 H 107.64409598386595 43.995094974765294 1.710339116241272 H 0.0 **** 0.06
4528 H 108.45497134858255 43.53816628289648 0.19325382034743654 H 0.0 **** 0.06
4529 H 107.8561373323493 45.19907705822618 0.4175765577306052 H 0.0 **** 0.06
4530 H 106.70409153096534 43.85951374532419 0.20496645528936597 H 0.0 **** 0.06
4531 C 11.798623088626869 74.15364192565777 120.92272123702207 C 0.0 **** -0.24
4532 H 11.21888863752099 75.06648715446082 120.78783341441962 H 0.0 **** 0.06
4533 H 11.127964779763829 73.33015840657073 121.16834598207353 H 0.0 **** 0.06
4534 H 12.514440935141465 74.2932472469823 121.73217063117582 H 0.0 **** 0.06
4535 H 12.334084942363006 73.9244502773654 120.00049457150638 H 0.0 **** 0.06
4536 C 134.52707904809625 42.16998037640316 160.9600572298148 C 0.0 **** -0.24
4537 H 133.59443766601416 42.38685576233031 160.43819581629666 H 0.0 **** 0.06
4538 H 134.30567332364691 41.828400414207465 161.97199046102173 H 0.0 **** 0.06
4539 H 135.1366635396351 43.07217034992111 161.00503688426622 H 0.0 **** 0.06
4540 H 135.0696004413266 41.39086294195431 160.42375342540882 H 0.0 **** 0.06
4541 C 138.74571152776116 153.0666455364604 162.07224596660308 C 0.0 **** -0.24
4542 H 138.58392877364423 154.14038169449293 162.16801753173274 H 0.0 **** 0.06
4543 H 137.82826691292405 152.5371925261774 162.32870076771934 H 0.0 **** 0.06
4544 H 139.54448259188786 152.75818760898525 162.7465876262699 H 0.0 **** 0.06
4545 H 139.02619100934385 152.83179866026825 161.04547218931964 H 0.0 **** 0.06
4546 C 57.711408664000146 153.19786449177653 75.9330492016411 C 0.0 **** -0.24
4547 H 57.70790080689153 154.28266343673815 76.04251219986567 H 0.0 **** 0.06
4548 H 57.886655793990656 152.93876555895557 74.88928948387309 H 0.0 **** 0.06
4549 H 56.74857662986085 152.79789000865816 76.25056623210847 H 0.0 **** 0.06
4550 H 58.50259680244585 152.77373797249336 76.551389086444 H 0.0 **** 0.06
4551 C 16.76782894936025 151.57911773324741 30.149212805179758 C 0.0 **** -0.24
4552 H 17.17095848148344 152.487026513788 30.5972165945318 H 0.0 **** 0.06
4553 H 17.57494024972499 151.0196240942265 29.674575630552923 H 0.0 **** 0.06
4554 H 16.02080459936883 151.8441801230835 29.400509421858075 H 0.0 **** 0.06
4555 H 16.30593396265121 150.9652070329474 30.922798530313173 H 0.0 **** 0.06
4556 C 16.675826901742937 168.63575606947833 99.42172975776631 C 0.0 **** -0.24
4557 H 17.677294925628473 168.3089499052814 99.14040657172845 H 0.0 **** 0.06
4558 H 16.166875268826857 169.0384567545893 98.54605426083853 H 0.0 **** 0.06
4559 H 16.748207658173783 169.40650861981027 100.18850397043653 H 0.0 **** 0.06
4560 H 16.11390814276041 167.78690540733191 99.81143098755987 H 0.0 **** 0.06
4561 C 35.761307354406995 55.9365402691912 68.17572975868194 C 0.0 **** -0.24
4562 H 35.34821442404976 56.50405354550497 67.34146534364287 H 0.0 **** 0.06
4563 H 35.30686444429074 54.94588445452487 68.20072767084594 H 0.0 **** 0.06
4564 H 35.54954208455783 56.457644241322356 69.1094627557889 H 0.0 **** 0.06
4565 H 36.83965257354873 55.83866757000794 68.04924372542307 H 0.0 **** 0.06
4566 C 140.93121739226757 100.97770057604689 164.29330386956903 C 0.0 **** -0.24
4567 H 140.39190336865275 100.55101298528692 165.13846494544183 H 0.0 **** 0.06
4568 H 140.84847998644156 102.06487661562315 164.32271490887481 H 0.0 **** 0.06
4569 H 140.50295790567407 100.60515299089661 163.3630967546412 H 0.0 **** 0.06
4570 H 141.9809690604475 100.69098234639296 164.35072563946827 H 0.0 **** 0.06
4571 C 5.2799323588723155 59.882867099876876 132.14278968470379 C 0.0 **** -0.24
4572 H 5.689568097164397 60.03556125532111 131.1445065434068 H 0.0 **** 0.06
4573 H 4.317302952110566 60.38962811606774 132.22074558797777 H 0.0 **** 0.06
4574 H 5.9666691249562405 60.29149220775378 132.8835631309641 H 0.0 **** 0.06
4575 H 5.145162175281769 58.81544006460129 132.3202177921163 H 0.0 **** 0.06
4576 C 23.814772851434803 11.15477462756158 109.90797784849983 C 0.0 **** -0.24
4577 H 23.887623615984232 10.47459534910027 110.7561889549007 H 0.0 **** 0.06
4578 H 23.12310371658333 10.745517967493385 109.17149567987082 H 0.0 **** 0.06
4579 H 24.798580377325685 11.275482946108468 109.45461327596226 H 0.0 **** 0.06
4580 H 23.45118623260197 12.123323682011375 110.24958091239333 H 0.0 **** 0.06
4581 C 15.917929845070887 52.8866088582306 54.39057460847266 C 0.0 **** -0.24
4582 H 14.975336880631545 52.53987540230321 53.96834295672137 H 0.0 **** 0.06
4583 H 15.78481799543053 53.09319141761978 55.453380384848586 H 0.0 **** 0.06
4584 H 16.23164181048429 53.79742036715322 53.88025177739482 H 0.0 **** 0.06
4585 H 16.67905747069352 52.11649715298756 54.26204093006368 H 0.0 **** 0.06
4586 C 23.206723260010676 36.81073663142328 73.84919199737489 C 0.0 **** -0.24
4587 H 23.69875154398477 37.56658497375311 73.2377235897266 H 0.0 **** 0.06
4588 H 22.230302676958416 36.57916343851085 73.42276157202245 H 0.0 **** 0.06
4589 H 23.079928698723336 37.18991983203168 74.86383403258385 H 0.0 **** 0.06
4590 H 23.816345720110547 35.90843747402012 73.87199159061763 H 0.0 **** 0.06
4591 C 149.0574960718963 127.96919440228748 4.02550669273041 C 0.0 **** -0.24
4592 H 148.06265838659348 127.70892917667814 4.387299705003976 H 0.0 **** 0.06
4593 H 148.9684196560368 128.58289578092044 3.1297638937259578 H 0.0 **** 0.06
4594 H 149.60710310224712 127.05741222727764 3.789494847993552 H 0.0 **** 0.06
4595 H 149.59034219111 128.52541522084297 4.7970010936501595 H 0.0 **** 0.06
4596 C 77.76959311198215 42.97755641553778 164.51642490457834 C 0.0 **** -0.24
4597 H 77.17781057198943 42.2055241465097 164.02492741954626 H 0.0 **** 0.06
4598 H 78.1916362451841 42.5796715232174 165.4391341672678 H 0.0 **** 0.06
4599 H 77.1329197082714 43.83173986735295 164.74667648385048 H 0.0 **** 0.06
4600 H 78.57542590453363 43.293242082935535 163.85414834468355 H 0.0 **** 0.06
4601 C 172.39078509981806 88.89349447742575 6.731533191303392 C 0.0 **** -0.24
4602 H 172.45211558885987 89.97832774159619 6.818954868718478 H 0.0 **** 0.06
4603 H 172.13759144075397 88.62621482977636 5.705303800547092 H 0.0 **** 0.06
4604 H 171.62050132500644 88.51793915799658 7.405161645848615 H 0.0 **** 0.06
4605 H 173.35088727222757 88.45254732098061 6.995867360361892 H 0.0 **** 0.06
4606 C 104.33070245632129 112.47114338874593 32.60782960113579 C 0.0 **** -0.24
4607 H 105.34281549710394 112.32991024326321 32.22758547069523 H 0.0 **** 0.06
4608 H 103.6176624864388 112.37447996689181 31.78955559567811 H 0.0 **** 0.06
4609 H 104.24520354349147 113.46338942857528 33.050472695268326 H 0.0 **** 0.06
4610 H 104.1198755053951 111.71596360799956 33.365644688337284 H 0.0 **** 0.06
4611 C 108.11374238219284 42.50211338038662 18.578747782856 C 0.0 **** -0.24
4612 H 107.42818982787381 41.66052565764602 18.677094009206428 H 0.0 **** 0.06
4613 H 108.0206291817527 42.93136136580432 17.580547743712827 H 0.0 **** 0.06
4614 H 109.13624528250591 42.15624298525768 18.7322785309741 H 0.0 **** 0.06
4615 H 107.8700466534678 43.25808884185852 19.32407766351804 H 0.0 **** 0.06
4616 C 137.59516689665878 8.705553121137065 93.594387865095 C 0.0 **** -0.24
4617 H 137.1698197836879 8.388417664420693 92.64235891928314 H 0.0 **** 0.06
4618 H 138.64464777816465 8.965971943914305 93.45292715370977 H 0.0 **** 0.06
4619 H 137.5154426061515 7.893111335931664 94.31530777288438 H 0.0 **** 0.06
4620 H 137.05127072257 9.574700775991516 93.96400183125934 H 0.0 **** 0.06
4621 C 144.50925507790282 132.00283570929236 24.054480739967737 C 0.0 **** -0.24
4622 H 145.01456769155246 131.20669010263003 24.6009764063172 H 0.0 **** 0.06
4623 H 143.78020863598744 131.56741370069278 23.369772629955918 H 0.0 **** 0.06
4624 H 145.24266355150812 132.57760620547128 23.488584916224134 H 0.0 **** 0.06
4625 H 143.99879831159566 132.65925581457964 24.759705342114692 H 0.0 **** 0.06
4626 C 87.6160737254487 12.148607777170781 15.680273921792804 C 0.0 **** -0.24
4627 H 87.28266067922318 12.952979059421551 15.024526433698753 H 0.0 **** 0.06
4628 H 88.20893144531819 11.43478382503389 15.106185649671758 H 0.0 **** 0.06
4629 H 86.74956602791436 11.642237782399263 16.105336291977657 H 0.0 **** 0.06
4630 H 88.22501897845707 12.564246650886446 16.483854175578884 H 0.0 **** 0.06
4631 C 61.01667046162916 86.87834340408068 170.76253000509618 C 0.0 **** -0.24
4632 H 61.60145549769095 86.6377149812705 171.65122548281752 H 0.0 **** 0.06
4633 H 61.089530350234014 86.0582712268191 170.04809508875303 H 0.0 **** 0.06
4634 H 61.40299917680609 87.79112380176042 170.30983117192076 H 0.0 **** 0.06
4635 H 59.97425143629616 87.02472727185165 171.04302329539522 H 0.0 **** 0.06
4636 C 35.55126338513078 134.2640266180313 87.21977437197995 C 0.0 **** -0.24
4637 H 35.416637561236726 133.7555918643167 88.17450164961485 H 0.0 **** 0.06
4638 H 36.50360305187746 134.79345018066815 87.22150973432156 H 0.0 **** 0.06
4639 H 34.73978360896487 134.9754692987272 87.06925178974694 H 0.0 **** 0.06
4640 H 35.54410816877025 133.53017577260405 86.41420444416138 H 0.0 **** 0.06
4641 C 125.68455493987938 117.42713331770639 142.20006457373563 C 0.0 **** -0.24
4642 H 125.757742279822 118.5146919167191 142.16032621491894 H 0.0 **** 0.06
4643 H 126.27926987428759 116.99431075717649 141.3956716585651 H 0.0 **** 0.06
4644 H 124.64299405023334 117.12971752184649 142.0829197379812 H 0.0 **** 0.06
4645 H 126.05807224152252 117.07350352283422 143.16073983666132 H 0.0 **** 0.06
4646 C 27.946785148316167 15.173669547163229 164.3956297857149 C 0.0 **** -0.24
4647 H 28.503486550834708 14.450112719732203 163.7999526450169 H 0.0 **** 0.06
4648 H 27.971048738897878 14.877181641806743 165.44405258854044 H 0.0 **** 0.06
4649 H 26.912571795654003 15.208068674496417 164.05077232087538 H 0.0 **** 0.06
4650 H 28.39896569820911 16.15934205874541 164.28493814234065 H 0.0 **** 0.06
4651 C 151.24992516764405 112.49356585039192 121.62355293451381 C 0.0 **** -0.24
4652 H 152.14922912328353 112.60494083790772 122.22988717553787 H 0.0 **** 0.06
4653 H 150.79709791610117 113.47267348853401 121.46315986952783 H 0.0 **** 0.06
4654 H 150.54170812336412 111.84573932907583 122.14105136745846 H 0.0 **** 0.06
4655 H 151.5116317034252 112.05251591400389 120.66283717594646 H 0.0 **** 0.06
4656 C 76.33119085061652 38.63737853970082 88.45180118874814 C 0.0 **** -0.24
4657 H 75.44327811920874 38.33658032677732 87.89605881067163 H 0.0 **** 0.06
4658 H 76.47477780334128 37.9654597073411 89.2986276677875 H 0.0 **** 0.06
4659 H 76.20429123396116 39.65820985597378 88.81458369074426 H 0.0 **** 0.06
4660 H 77.20279736610257 38.59044459933324 87.7986140141657 H 0.0 **** 0.06
4661 C 36.57863928341811 112.96402347026168 23.8786345567392 C 0.0 **** -0.24
4662 H 35.78397047965771 112.39247154948617 23.400056397815206 H 0.0 **** 0.06
4663 H 36.75587613690061 113.88122499911833 23.31561086100848 H 0.0 **** 0.06
4664 H 37.49101549334699 112.36901867907267 23.90084047852099 H 0.0 **** 0.06
4665 H 36.28236197427293 113.21469057447109 24.89680493597001 H 0.0 **** 0.06
4666 C 83.59376805787872 7.643307002848303 111.08697270156969 C 0.0 **** -0.24
4667 H 84.6513817297068 7.478020530898242 111.29167951415178 H 0.0 **** 0.06
4668 H 83.05087355196848 7.733830925632745 112.02853374471317 H 0.0 **** 0.06
4669 H 83.19767129598779 6.80132214816782 110.51913905577265 H 0.0 **** 0.06
4670 H 83.47432893495962 8.560198125452743 110.50968407927769 H 0.0 **** 0.06
4671 C 156.7944571565686 107.77201374425061 72.39292156150958 C 0.0 **** -0.24
4672 H 155.8720871348659 108.34834634141419 72.45255729133339 H 0.0 **** 0.06
4673 H 157.63349504693883 108.3962047972957 72.70046689978403 H 0.0 **** 0.06
4674 H 156.9469539780615 107.43566718550818 71.36749487433104 H 0.0 **** 0.06
4675 H 156.7250143922106 106.90587823855287 73.05220997879542 H 0.0 **** 0.06
4676 C 146.65449984390608 18.346526518220003 97.15669523803166 C 0.0 **** -0.24
4677 H 145.6900325169558 18.389399970811212 97.6612582032756 H 0.0 **** 0.06
4678 H 147.27526919634266 19.178763845902438 97.48818372905737 H 0.0 **** 0.06
4679 H 146.50459299251025 18.411544021736972 96.07922049004253 H 0.0 **** 0.06
4680 H 147.1491462812065 17.405119193309588 97.39759015174215 H 0.0 **** 0.06
4681 C 145.27970081040013 57.31496528056863 115.03404603424298 C 0.0 **** -0.24
4682 H 145.25492702687228 56.899449429192174 116.0414546022771 H 0.0 **** 0.06
4683 H 146.25475746379902 57.76857532020762 114.85171478234088 H 0.0 **** 0.06
4684 H 144.50167650846166 58.07153101907846 114.93422298042384 H 0.0 **** 0.06
4685 H 145.1075670878095 56.51907054235977 114.30946979126628 H 0.0 **** 0.06
4686 C 31.00884431286147 149.74491888197227 127.5164089738085 C 0.0 **** -0.24
4687 H 30.10848900193764 150.18023445721124 127.94940647467888 H 0.0 **** 0.06
4688 H 30.850409905858328 148.67981063131705 127.344202211229 H 0.0 **** 0.06
4689 H 31.84488601361943 149.8819022738278 128.2033864506598 H 0.0 **** 0.06
4690 H 31.232496539030137 150.23742166123367 126.57066278756315 H 0.0 **** 0.06
4691 C 117.42087177949955 170.92788883586385 81.6718105876882 C 0.0 **** -0.24
4692 H 118.09585107171077 170.815581077672 80.82317219839257 H 0.0 **** 0.06
4693 H 116.94489524803461 169.97080597258866 81.8857963962941 H 0.0 **** 0.06
4694 H 116.65835114841715 171.66880482409516 81.43403771742945 H 0.0 **** 0.06
4695 H 117.98647907339253 171.25567351871857 82.54463405538498 H 0.0 **** 0.06
4696 C 15.38735226888656 71.49678009558141 101.70566437913487 C 0.0 **** -0.24
4697 H 15.876564309225785 72.36937855520645 101.2721880725303 H 0.0 **** 0.06
4698 H 14.640266440741925 71.11644516596772 101.00843822181736 H 0.0 **** 0.06
4699 H 14.90361394331643 71.7788707435551 102.64012906407436 H 0.0 **** 0.06
4700 H 16.131207634388318 70.72342425082289 101.89967248147752 H 0.0 **** 0.06
4701 C 161.77445638959338 98.0210787654797 158.1850378404489 C 0.0 **** -0.24
4702 H 160.75885371156653 98.38343059107447 158.34440703795025 H 0.0 **** 0.06
4703 H 162.33249079689205 98.08496564659234 159.1194698962591 H 0.0 **** 0.06
4704 H 162.26425361729176 98.63267050859326 157.42674144428042 H 0.0 **** 0.06
4705 H 161.741669126082 96.9840631576713 157.8509558009668 H 0.0 **** 0.06
4706 C 3.188829591409281 137.4549753946762 133.6786294479295 C 0.0 **** -0.24
4707 H 4.02661294408631 137.2808986076974 133.00360981579666 H 0.0 **** 0.06
4708 H 2.323069396403831 137.7856939110714 133.1042256233422 H 0.0 **** 0.06
4709 H 3.4602501444516562 138.2227637200416 134.4033439872939 H 0.0 **** 0.06
4710 H 2.946455250113708 136.53038563599154 134.20242677350478 H 0.0 **** 0.06
4711 C 115.6400698889197 118.56521867901347 30.71683057877837 C 0.0 **** -0.24
4712 H 114.9854180969898 118.88717076290362 29.907323286737324 H 0.0 **** 0.06
4713 H 116.63289863549969 118.35452651634253 30.32018582750831 H 0.0 **** 0.06
4714 H 115.23316170005612 117.6639362811112 31.175916589474298 H 0.0 **** 0.06
4715 H 115.70715264105493 119.3550782138621 31.465701084830755 H 0.0 **** 0.06
4716 C 35.42653511999694 153.3113282433596 50.17646714425966 C 0.0 **** -0.24
4717 H 35.089295213542016 153.9234534929613 51.01259817088804 H 0.0 **** 0.06
4718 H 36.192139660113966 153.84981544437238 49.617076016671575 H 0.0 **** 0.06
4719 H 34.58179764831627 153.09466694152766 49.521703292939364 H 0.0 **** 0.06
4720 H 35.84205197304823 152.37765391674066 50.554054419132655 H 0.0 **** 0.06
4721 C 136.85610727733766 53.840748099159555 6.585624371726283 C 0.0 **** -0.24
4722 H 137.91769608116294 53.70557511507184 6.380664284867777 H 0.0 **** 0.06
4723 H 136.3060523857804 52.961204299573865 6.248595364348475 H 0.0 **** 0.06
4724 H 136.4933236621007 54.721517749726786 6.057042288367278 H 0.0 **** 0.06
4725 H 136.70709706780735 53.97287614712042 7.657815284583194 H 0.0 **** 0.06
4726 C 157.46167490303168 0.20327190709525667 170.53262838151394 C 0.0 **** -0.24
4727 H 158.45013742085317 -0.1626190877227529 170.25683537055994 H 0.0 **** 0.06
4728 H 156.70029307117971 -0.4350660483091886 170.08384161770132 H 0.0 **** 0.06
4729 H 157.33806792471512 1.2243620058084659 170.17111278840846 H 0.0 **** 0.06
4730 H 157.35741929474165 0.18644357954252655 171.61754578077716 H 0.0 **** 0.06
4731 C 159.28452103735765 131.25769977476864 108.53396297132028 C 0.0 **** -0.24
4732 H 159.73862796024605 130.77449167059314 109.39865193029178 H 0.0 **** 0.06
4733 H 158.20622033123968 131.3231545257729 108.67916781882573 H 0.0 **** 0.06
4734 H 159.49698093949902 130.67347527724934 107.6386542482422 H 0.0 **** 0.06
4735 H 159.69755372315595 132.26049080836037 108.42018530583701 H 0.0 **** 0.06
4736 C 36.023053328691105 134.0841526899408 109.0205307736484 C 0.0 **** -0.24
4737 H 34.952559980199624 133.99889485019628 108.83326016196821 H 0.0 **** 0.06
4738 H 36.2223633898617 134.99995636256605 109.57876851166353 H 0.0 **** 0.06
4739 H 36.55655300118849 134.11395133520236 108.07051323510072 H 0.0 **** 0.06
4740 H 36.35958611087847 133.2244497607787 109.60009504869706 H 0.0 **** 0.06
4741 C 90.09635980387004 108.85572797357847 66.1616521586613 C 0.0 **** -0.24
4742 H 89.94334167649914 109.28462766910076 65.17187508331158 H 0.0 **** 0.06
4743 H 89.46001739469017 107.97861227639305 66.28025900263052 H 0.0 **** 0.06
4744 H 89.84213501131204 109.5943436409909 66.92132433328081 H 0.0 **** 0.06
4745 H 91.14090964490074 108.5634358631211 66.27384914992535 H 0.0 **** 0.06
4746 C 171.16214291108005 116.15953021358749 55.23412424772232 C 0.0 **** -0.24
4747 H 170.9686324287527 117.22473460334271 55.10562716332291 H 0.0 **** 0.06
4748 H 171.31605315814693 115.69717380607605 54.259003035018736 H 0.0 **** 0.06
4749 H 170.30943455536348 115.69247620394475 55.72765359567359 H 0.0 **** 0.06
4750 H 172.0536804654431 116.0238452741458 55.8463093252023 H 0.0 **** 0.06
4751 C 101.82906267446234 109.5996312245486 29.214680795179248 C 0.0 **** -0.24
4752 H 101.86643748596234 108.51150816237248 29.255306906277696 H 0.0 **** 0.06
4753 H 100.81027298271405 109.92012623766152 28.998318419312213 H 0.0 **** 0.06
4754 H 102.49693777666351 109.95753621260212 28.42991197200263 H 0.0 **** 0.06
4755 H 102.14431863280078 110.00966898586017 30.174208232544885 H 0.0 **** 0.06
4756 C 65.22266110368616 107.39967594159094 129.75487068115723 C 0.0 **** -0.24
4757 H 64.50960731527056 107.24299229625765 128.94437776621265 H 0.0 **** 0.06
4758 H 65.47679528956789 108.45728674653293 129.81620054240824 H 0.0 **** 0.06
4759 H 66.12476969798354 106.8181720445296 129.5611814331471 H 0.0 **** 0.06
4760 H 64.7784645056206 107.07705854288739 130.69638784733553 H 0.0 **** 0.06
4761 C 24.188485574181335 161.38655612644618 49.35308847725531 C 0.0 **** -0.24
4762 H 24.93786772384852 162.14887976788145 49.564664059415705 H 0.0 **** 0.06
4763 H 23.810398557623444 161.51997011109603 48.339408001430854 H 0.0 **** 0.06
4764 H 23.365907997215146 161.4792252487899 50.06235764599933 H 0.0 **** 0.06
4765 H 24.638992665359474 160.39930019679431 49.446197149477655 H 0.0 **** 0.06
4766 C 8.329317213155207 23.73471338540574 44.20874956132367 C 0.0 **** -0.24
4767 H 8.526105779006627 22.883001374406774 44.86088691844337 H 0.0 **** 0.06
4768 H 9.163908900011961 23.86616091225585 43.52091788402096 H 0.0 **** 0.06
4769 H 8.209869529422775 24.63365159862306 44.81329609980834 H 0.0 **** 0.06
4770 H 7.416022240271047 23.554599685624225 43.64191490674838 H 0.0 **** 0.06
4771 C 27.746523359983087 149.35190900302143 84.05951213365071 C 0.0 **** -0.24
4772 H 27.049508150201746 148.6143602411319 84.45634179896643 H 0.0 **** 0.06
4773 H 27.679111275449912 149.36518408650642 82.97142501239347 H 0.0 **** 0.06
4774 H 28.76095954684172 149.09032543862918 84.35825685580917 H 0.0 **** 0.06
4775 H 27.49430006611766 150.33677421508276 84.45168950285819 H 0.0 **** 0.06
4776 C 60.862699691379476 91.64401366744946 42.10314981859045 C 0.0 **** -0.24
4777 H 60.00931658738219 91.82318610663125 42.75725814542909 H 0.0 **** 0.06
4778 H 61.16782366337259 92.58232524324285 41.63789506448188 H 0.0 **** 0.06
4779 H 60.5840539022372 90.92897545895573 41.32891789161505 H 0.0 **** 0.06
4780 H 61.69100335946649 91.24213464819803 42.68767826517791 H 0.0 **** 0.06
4781 C 34.1351198344411 138.45195611814194 35.41363936139972 C 0.0 **** -0.24
4782 H 34.637209699433726 139.35849899371235 35.07337327180191 H 0.0 **** 0.06
4783 H 34.87708921410771 137.74352350280327 35.78155082418898 H 0.0 **** 0.06
4784 H 33.58730187240121 138.0076510209543 34.583093983853345 H 0.0 **** 0.06
4785 H 33.44097598047881 138.7018282820764 36.21625907644942 H 0.0 **** 0.06
4786 C 113.00979609579116 87.49035607523652 131.59894546758983 C 0.0 **** -0.24
4787 H 112.48467791976987 86.55747602050684 131.80689479307853 H 0.0 **** 0.06
4788 H 112.48052054716817 88.0384634557252 130.81853024478085 H 0.0 **** 0.06
4789 H 114.02349136978279 87.26937982113492 131.26381774737752 H 0.0 **** 0.06
4790 H 113.04984923952128 88.09457689481525 132.50542168890402 H 0.0 **** 0.06
4791 C 149.05717062674714 65.97139228809816 16.061274184131037 C 0.0 **** -0.24
4792 H 149.53663111465423 66.78597222807095 16.605089756210532 H 0.0 **** 0.06
4793 H 149.82146901920535 65.32744176529398 15.62433606242405 H 0.0 **** 0.06
4794 H 148.4319351942639 66.38226305648682 15.268425486463457 H 0.0 **** 0.06
4795 H 148.4405587636265 65.39015451671146 16.74671903401878 H 0.0 **** 0.06
4796 C 28.1967198775951 128.30966726576779 157.66089101698708 C 0.0 **** -0.24
4797 H 28.09892988779022 127.97784855391606 156.62739421658986 H 0.0 **** 0.06
4798 H 27.21013422554703 128.35351375811146 158.12355445364565 H 0.0 **** 0.06
4799 H 28.652762568123705 129.29854673406655 157.68317549091225 H 0.0 **** 0.06
4800 H 28.82353339710174 127.60712717598946 158.2095989568556 H 0.0 **** 0.06
4801 C 59.018104551416 58.56688165713119 30.987494750959854 C 0.0 **** -0.24
4802 H 58.428495374801685 59.200648829306346 30.32572564379177 H 0.0 **** 0.06
4803 H 58.492735679513885 57.625900726448435 31.152814564348603 H 0.0 **** 0.06
4804 H 59.164169085141026 59.073783761532084 31.94153594717835 H 0.0 **** 0.06
4805 H 59.98725860729854 58.367202967956885 30.530873453828463 H 0.0 **** 0.06
4806 C 113.20204677816128 15.351239145972464 150.66995992579783 C 0.0 **** -0.24
4807 H 112.349271030539 15.753543337218389 151.2181789416634 H 0.0 **** 0.06
4808 H 113.73339967258502 16.165885158202073 150.17678531963358 H 0.0 **** 0.06
4809 H 112.84928264161542 14.64125195934438 149.92199078174872 H 0.0 **** 0.06
4810 H 113.8729307852075 14.845546887310931 151.36357447319642 H 0.0 **** 0.06
4811 C 49.30563370463186 86.81838469476102 142.6749504066533 C 0.0 **** -0.24
4812 H 48.57028216836076 87.1134123706002 141.9271436516916 H 0.0 **** 0.06
4813 H 48.85916913215739 86.09769356857754 143.36021522925665 H 0.0 **** 0.06
4814 H 49.62966545512549 87.69684049393277 143.23241071930065 H 0.0 **** 0.06
4815 H 50.1648185025885 86.36494351575736 142.1808180746014 H 0.0 **** 0.06
4816 C 9.686602607243856 1.8728316567228092 73.14545761526198 C 0.0 **** -0.24
4817 H 9.105390509042678 1.918991955904147 74.06692597334606 H 0.0 **** 0.06
4818 H 9.197293255284478 1.1993099196366757 72.4413524861833 H 0.0 **** 0.06
4819 H 10.688149079962585 1.502605546086329 73.36609418452359 H 0.0 **** 0.06
4820 H 9.75478058293777 2.8688974349850014 72.70888929982438 H 0.0 **** 0.06
4821 C 154.53915349396163 135.30191160146165 103.3530215358052 C 0.0 **** -0.24
4822 H 155.43826463950256 135.57752151705296 102.80121946240294 H 0.0 **** 0.06
4823 H 154.54374908734923 134.22801873453557 103.54335339007505 H 0.0 **** 0.06
4824 H 153.6588957514454 135.56279903949707 102.76545516698735 H 0.0 **** 0.06
4825 H 154.51527028915953 135.83988053519357 104.30136337199176 H 0.0 **** 0.06
4826 C 98.86105409852925 119.44557434527619 127.77466665048703 C 0.0 **** -0.24
4827 H 97.80046842394731 119.1982528022327 127.72263508885001 H 0.0 **** 0.06
4828 H 99.03710988462231 120.39420193558863 127.26564376992246 H 0.0 **** 0.06
4829 H 99.4418495342594 118.66005479726019 127.29176099567809 H 0.0 **** 0.06
4830 H 99.16332166236646 119.53172627971304 128.81832528553636 H 0.0 **** 0.06
4831 C 171.538174174068 25.780369879448926 100.09140146794687 C 0.0 **** -0.24
4832 H 172.42058438237387 25.452587881327673 100.6413008964769 H 0.0 **** 0.06
4833 H 170.97436637196733 26.48832108740862 100.69900416603369 H 0.0 **** 0.06
4834 H 170.9122745299436 24.917894135948586 99.86207982660031 H 0.0 **** 0.06
4835 H 171.84709401932497 26.26254075560172 99.16381159783293 H 0.0 **** 0.06
4836 C 50.54459808764284 58.69189787233384 136.3337320748089 C 0.0 **** -0.24
4837 H 49.47714815134978 58.90014493837711 136.26627870243564 H 0.0 **** 0.06
4838 H 50.82313050880998 57.97512732924935 135.56031245811496 H 0.0 **** 0.06
4839 H 50.77211362793395 58.275075685884445 137.31496707982893 H 0.0 **** 0.06
4840 H 51.10504168337877 59.61575568320241 136.1924384388662 H 0.0 **** 0.06
4841 C 61.06693916246833 27.028496012795813 8.963418049411871 C 0.0 **** -0.24
4842 H 61.86948579018504 26.76802461806446 9.653919870634297 H 0.0 **** 0.06
4843 H 60.389884870935674 27.735344528345877 9.44454265587433 H 0.0 **** 0.06
4844 H 60.51882187159816 26.12811427305661 8.688362952862121 H 0.0 **** 0.06
4845 H 61.49255229132156 27.48381005132063 8.06838183995336 H 0.0 **** 0.06
4846 C 49.97858997734774 58.43590495427496 165.9147016265589 C 0.0 **** -0.24
4847 H 50.343822743777764 59.09695702794171 166.70097790215584 H 0.0 **** 0.06
4848 H 48.94589763770098 58.15774801003509 166.1238485033541 H 0.0 **** 0.06
4849 H 50.59704433531927 57.53856224383016 165.87942449619945 H 0.0 **** 0.06
4850 H 50.02975852405865 58.950730358073315 164.95497677738433 H 0.0 **** 0.06
4851 C 131.26423987079508 37.091620462632164 38.932325548812315 C 0.0 **** -0.24
4852 H 130.85274659266096 37.05658988998459 37.92388947788788 H 0.0 **** 0.06
4853 H 130.74320529383093 37.855698825437514 39.5105983689607 H 0.0 **** 0.06
4854 H 132.3263131703088 37.3330895629348 38.88323194182419 H 0.0 **** 0.06
4855 H 131.13469442637958 36.121103572172046 39.41158240657671 H 0.0 **** 0.06
4856 C 53.6414953614253 108.40615314322008 24.634207351263456 C 0.0 **** -0.24
4857 H 52.591824265907945 108.37808407884674 24.338773850322696 H 0.0 **** 0.06
4858 H 54.18482077929427 107.61500552438108 24.11817527757728 H 0.0 **** 0.06
4859 H 53.71886596006185 108.25895439956977 25.711428082643977 H 0.0 **** 0.06
4860 H 54.066888742996426 109.37360271386135 24.368132223988482 H 0.0 **** 0.06
4861 C 101.42397095343065 37.5322465081356 118.89668345498552 C 0.0 **** -0.24
4862 H 101.59580449849352 37.99725660931557 119.86771282589055 H 0.0 **** 0.06
4863 H 101.03381767582863 38.27689637514462 118.20215108830254 H 0.0 **** 0.06
4864 H 100.70428439102008 36.72208053196768 119.00387237163369 H 0.0 **** 0.06
4865 H 102.36474074333373 37.13587217516846 118.51379209424778 H 0.0 **** 0.06
4866 C 91.95241638206551 101.6905345651536 64.1669029315176 C 0.0 **** -0.24
4867 H 92.46190077609276 100.87820963455545 63.64773044662144 H 0.0 **** 0.06
4868 H 92.18560678994683 101.64334955414986 65.23127459227152 H 0.0 **** 0.06
4869 H 90.87677053093495 101.5945818461114 64.0250677652432 H 0.0 **** 0.06
4870 H 92.28912615948477 102.6459367552012 63.7636754716346 H 0.0 **** 0.06
4871 C 106.87891129508276 109.00824175968373 11.87962960460635 C 0.0 **** -0.24
4872 H 106.88385350282263 109.30657010995094 12.927877165012148 H 0.0 **** 0.06
4873 H 107.81157239286193 109.32065426876514 11.409009896876682 H 0.0 **** 0.06
4874 H 106.0393941919973 109.48159351113657 11.370533016499166 H 0.0 **** 0.06
4875 H 106.78197568495716 107.92484653083648 11.810662620385983 H 0.0 **** 0.06
4876 C 131.25888576535223 168.16061030862596 130.60863318662356 C 0.0 **** -0.24
4877 H 130.17056796472315 168.21260013199296 130.59811728037636 H 0.0 **** 0.06
4878 H 131.6593872687309 168.75916432473338 129.7897657665808 H 0.0 **** 0.06
4879 H 131.57463436282993 167.12399437291594 130.48907808255194 H 0.0 **** 0.06
4880 H 131.63095346512497 168.54668240486146 131.55757161698514 H 0.0 **** 0.06
4881 C 14.8301929303069 23.315008919671293 152.42510229300348 C 0.0 **** -0.24
4882 H 13.85600707395998 23.56245835212772 152.84622207046115 H 0.0 **** 0.06
4883 H 15.541082418063006 24.106987339896698 152.66377265929557 H 0.0 **** 0.06
4884 H 14.743626981278425 23.218516870303098 151.34220024553773 H 0.0 **** 0.06
4885 H 15.17934788256845 22.373184059949693 152.84769893518424 H 0.0 **** 0.06
4886 C 145.04755304917978 162.36730018695044 54.01820235974401 C 0.0 **** -0.24
4887 H 146.0650804312503 162.69959157563363 54.22718724560383 H 0.0 **** 0.06
4888 H 144.64903491734304 162.92871487917992 53.173245542592724 H 0.0 **** 0.06
4889 H 144.42393197622613 162.53682698023928 54.89534805956174 H 0.0 **** 0.06
4890 H 145.05532512252114 161.30405154842816 53.77714193500299 H 0.0 **** 0.06
4891 C 139.87820624008697 35.49039926285366 48.706367290119545 C 0.0 **** -0.24
4892 H 140.48128334900105 34.79539067176597 48.12144399122343 H 0.0 **** 0.06
4893 H 139.04339326449934 35.844480174103296 48.10088136018307 H 0.0 **** 0.06
4894 H 140.49330959256537 36.33757267273012 49.010451614131085 H 0.0 **** 0.06
4895 H 139.49625862728664 34.98275208528304 49.59168222210734 H 0.0 **** 0.06
4896 C 80.47071668904803 17.72497349715664 4.466340753642498 C 0.0 **** -0.24
4897 H 81.13881312714359 18.397871225931908 5.0029616190616935 H 0.0 **** 0.06
4898 H 80.80687776673312 17.625079323114022 3.433974012923329 H 0.0 **** 0.06
4899 H 79.45825026350514 18.130234978962278 4.481074855080124 H 0.0 **** 0.06
4900 H 80.47700978616814 16.746738917670598 4.9461997595546165 H 0.0 **** 0.06
4901 C 40.44577403640926 161.4446686147632 127.24678039240308 C 0.0 **** -0.24
4902 H 40.527336522830694 162.3824417685007 127.79769989588351 H 0.0 **** 0.06
4903 H 39.594082224663794 160.87650900460474 127.62130129959075 H 0.0 **** 0.06
4904 H 41.35780379999059 160.8637260056688 127.38213757418396 H 0.0 **** 0.06
4905 H 40.30417009633928 161.65784373133712 126.18720930881 H 0.0 **** 0.06
4906 C 124.52752440650355 90.87448461668731 116.52813327702853 C 0.0 **** -0.24
4907 H 125.57012367324538 90.75754917570691 116.23220919723803 H 0.0 **** 0.06
4908 H 123.88610454221472 90.73982739469403 115.65632640788542 H 0.0 **** 0.06
4909 H 124.37651027619108 91.87250176372203 116.9399289794533 H 0.0 **** 0.06
4910 H 124.27693691201986 90.12814846232595 117.28165728034188 H 0.0 **** 0.06
4911 C 63.26135365728442 45.79150112311923 109.40468098788557 C 0.0 **** -0.24
4912 H 62.617600362918324 45.13098651595794 109.98603144198626 H 0.0 **** 0.06
4913 H 62.66855554919613 46.61154351665536 108.99947479346758 H 0.0 **** 0.06
4914 H 63.71398681466928 45.230541374620046 108.58714471023774 H 0.0 **** 0.06
4915 H 64.04507136926878 46.19267941782256 110.04744977568797 H 0.0 **** 0.06
4916 C 141.5189857061136 103.04947937161958 136.286072988095 C 0.0 **** -0.24
4917 H 141.60442786402282 103.91186729466057 136.9476505795406 H 0.0 **** 0.06
4918 H 140.62141602421934 102.48557935706046 136.53871424818544 H 0.0 **** 0.06
4919 H 142.39578685573306 102.41190899568878 136.40600625408052 H 0.0 **** 0.06
4920 H 141.45667742957403 103.38916676786059 135.2521192449862 H 0.0 **** 0.06
4921 C 171.11952167105028 98.06501769633891 143.22349590100484 C 0.0 **** -0.24
4922 H 170.09153504332372 97.70262746682053 143.23774388030407 H 0.0 **** 0.06
4923 H 171.59606327444732 97.84405093694534 144.17907949399256 H 0.0 **** 0.06
4924 H 171.12263639138646 99.14187127111174 143.05547550016385 H 0.0 **** 0.06
4925 H 171.6671842896589 97.57087041079254 142.4213230472694 H 0.0 **** 0.06
4926 C 152.08560175987563 70.97079899028142 116.82376566398725 C 0.0 **** -0.24
4927 H 151.36520648236575 71.0782055268204 116.01264626837235 H 0.0 **** 0.06
4928 H 151.7970016904359 70.12997752602524 117.4560183852794 H 0.0 **** 0.06
4929 H 152.10198868633944 71.8835256457653 117.41825003573848 H 0.0 **** 0.06
4930 H 153.07627678230253 70.7900790460206 116.4076196997292 H 0.0 **** 0.06
4931 C 122.25127386791954 27.046610892127397 117.41773153610902 C 0.0 **** -0.24
4932 H 122.51197795402942 27.613711543350462 118.31059063954555 H 0.0 **** 0.06
4933 H 122.5883801153247 26.015495404761786 117.53079106530555 H 0.0 **** 0.06
4934 H 122.73427105681384 27.493909213139055 116.54916944676015 H 0.0 **** 0.06
4935 H 121.16982912520996 27.062646863801106 117.28001327632865 H 0.0 **** 0.06
4936 C 61.71430326551061 119.71030171049927 10.329036674879248 C 0.0 **** -0.24
4937 H 61.09399306293619 119.04994874642819 10.935884620191622 H 0.0 **** 0.06
4938 H 61.125437074045266 120.56951550419939 10.009608403152043 H 0.0 **** 0.06
4939 H 62.07174724191242 119.16816892683116 9.453483113837216 H 0.0 **** 0.06
4940 H 62.565739522344074 120.0505048145067 10.917873931073608 H 0.0 **** 0.06
4941 C 24.086710841204564 130.08612697316474 56.36097569170673 C 0.0 **** -0.24
4942 H 23.36572155755855 129.43814428339854 55.862496931834826 H 0.0 **** 0.06
4943 H 24.501692677134685 129.56805906249232 57.22659856063201 H 0.0 **** 0.06
4944 H 23.58896506684765 130.999448242922 56.68827160249947 H 0.0 **** 0.06
4945 H 24.889219829344462 130.33747309180495 55.66777613388274 H 0.0 **** 0.06
4946 C 130.3046317239613 160.96534895941235 122.21650347687518 C 0.0 **** -0.24
4947 H 130.71345606958988 160.447264265163 123.08484910512698 H 0.0 **** 0.06
4948 H 130.77726069572503 161.94317993552767 122.12151592593176 H 0.0 **** 0.06
4949 H 129.22936930241437 161.09231772384456 122.3434241274098 H 0.0 **** 0.06
4950 H 130.49897766859135 160.37898232646742 121.31915573211421 H 0.0 **** 0.06
4951 C 106.61368160131863 24.583012537473394 59.6149821262278 C 0.0 **** -0.24
4952 H 107.23618477408439 25.21504967385207 60.24848828166995 H 0.0 **** 0.06
4953 H 105.7011278457484 24.320609796813024 60.149458137636884 H 0.0 **** 0.06
4954 H 107.1595048825275 23.674036737383844 59.361033035149376 H 0.0 **** 0.06
4955 H 106.35995349786413 25.12163553819797 58.702090845218436 H 0.0 **** 0.06
4956 C 37.439591848645605 75.09272611837895 11.944872340037563 C 0.0 **** -0.24
4957 H 38.42659811486459 74.86482994185604 12.347440533430586 H 0.0 **** 0.06
4958 H 37.428193358089885 76.11631015783558 11.569073190381516 H 0.0 **** 0.06
4959 H 36.693212526853415 74.98628049674977 12.731110459323645 H 0.0 **** 0.06
4960 H 37.21216782469044 74.40389107098522 11.131104691955045 H 0.0 **** 0.06
4961 C 116.28485735318213 13.987484353425259 78.66174754903274 C 0.0 **** -0.24
4962 H 116.7339962483139 13.218088556526993 79.2902048355876 H 0.0 **** 0.06
4963 H 116.83864404370794 14.919304559712145 78.77727068733797 H 0.0 **** 0.06
4964 H 115.24839535342326 14.14095456976753 78.96024305545724 H 0.0 **** 0.06
4965 H 116.31994619330706 13.670952068620693 77.61969992621458 H 0.0 **** 0.06
4966 C 75.0576140209966 27.98849465144906 51.33000235865531 C 0.0 **** -0.24
4967 H 74.85624052769008 28.597750988135545 50.449042876087816 H 0.0 **** 0.06
4968 H 74.26984891453331 27.24338530864273 51.44335315707052 H 0.0 **** 0.06
4969 H 75.08637971322322 28.62534942725634 52.213762900947984 H 0.0 **** 0.06
4970 H 76.01894198670077 27.487272570547674 51.21184065809885 H 0.0 **** 0.06
4971 C 121.4535769963783 143.35277710192685 76.02882201693379 C 0.0 **** -0.24
4972 H 120.6786242464284 143.1480504384678 75.29140126728947 H 0.0 **** 0.06
4973 H 121.94308395089121 142.41994379084994 76.31122276152303 H 0.0 **** 0.06
4974 H 121.00409173001796 143.808655119983 76.91170674766778 H 0.0 **** 0.06
4975 H 122.18971396108984 144.03483364637407 75.60280272390742 H 0.0 **** 0.06
4976 C 87.06356460245905 144.30251323432324 160.62354384567809 C 0.0 **** -0.24
4977 H 88.03466503971305 144.53201778382666 161.06358795972577 H 0.0 **** 0.06
4978 H 86.27382735447543 144.5889572718935 161.31732410524202 H 0.0 **** 0.06
4979 H 87.00116896916944 143.23253732579875 160.42135441076533 H 0.0 **** 0.06
4980 H 86.94793448358291 144.8552749704487 159.6913988378931 H 0.0 **** 0.06
4981 C 74.32253341868659 86.1930872017499 90.03438571039699 C 0.0 **** -0.24
4982 H 74.51449022889966 85.124151038879 90.12406419893088 H 0.0 **** 0.06
4983 H 74.87702891483701 86.72717408716915 90.806940672304 H 0.0 **** 0.06
4984 H 73.25592085204221 86.38152491455844 90.1556789087249 H 0.0 **** 0.06
4985 H 74.64356469422728 86.53869144791383 89.05162693216015 H 0.0 **** 0.06
4986 C 153.02486479984532 140.4734478494431 123.09804772530819 C 0.0 **** -0.24
4987 H 153.26215503075417 141.4564896513306 122.69082253151075 H 0.0 **** 0.06
4988 H 152.41462656806542 140.58969624003004 123.99442032255254 H 0.0 **** 0.06
4989 H 153.94856691536202 139.95238887985093 123.35109150681436 H 0.0 **** 0.06
4990 H 152.47395108451155 139.89694008747523 122.35579101255578 H 0.0 **** 0.06
4991 C 39.17449347951106 113.91030787040765 140.50627695355587 C 0.0 **** -0.24
4992 H 38.732632769627344 113.06434735107158 141.03253648121228 H 0.0 **** 0.06
4993 H 38.799133755687535 114.84083571529106 140.9330113139492 H 0.0 **** 0.06
4994 H 38.90741583170029 113.86065642810584 139.45022133201962 H 0.0 **** 0.06
4995 H 40.25977696516179 113.8746606462733 140.60811631107907 H 0.0 **** 0.06
4996 C 149.3105472994092 3.9291043016495806 140.38057895683073 C 0.0 **** -0.24
4997 H 149.80107143696512 4.898259659423651 140.29224925548436 H 0.0 **** 0.06
4998 H 148.22997701313875 4.061251265492743 140.3199222164235 H 0.0 **** 0.06
4999 H 149.56747498075217 3.477524952731855 141.3384079722665 H 0.0 **** 0.06
5000 H 149.6436657667808 3.2793813289499454 139.57173638314845 H 0.0 **** 0.06
5001 C 109.98269624959232 143.48174923167403 76.68684818735392 C 0.0 **** -0.24
5002 H 108.9345752803647 143.66807786703018 76.45139697035131 H 0.0 **** 0.06
5003 H 110.35999556832354 144.28451217329666 77.32143159961291 H 0.0 **** 0.06
5004 H 110.56174197648096 143.44471743168276 75.76379082528251 H 0.0 **** 0.06
5005 H 110.0738993726419 142.5307068115812 77.21157143958641 H 0.0 **** 0.06
5006 C 70.17999607067294 54.728922315749614 28.462718094024254 C 0.0 **** -0.24
5007 H 69.93975838927125 54.21009032225783 29.39040898406617 H 0.0 **** 0.06
5008 H 70.55936559622293 55.72501569553809 28.69248961016301 H 0.0 **** 0.06
5009 H 69.28111436987166 54.81374844568009 27.850881971799367 H 0.0 **** 0.06
5010 H 70.93896499458839 54.16711714269091 27.917648994352575 H 0.0 **** 0.06
5011 C 172.51000793206015 44.79960685593758 169.2563951776943 C 0.0 **** -0.24
5012 H 172.86016691045074 45.59627339115747 169.91420241352404 H 0.0 **** 0.06
5013 H 173.28621636305934 44.56218089397022 168.52924281690295 H 0.0 **** 0.06
5014 H 171.61090367131794 45.127628001284364 168.7360723903935 H 0.0 **** 0.06
5015 H 172.28442679262434 43.91398232140999 169.84945292006594 H 0.0 **** 0.06
5016 C 10.44536471962573 51.048091698966005 97.78335987841672 C 0.0 **** -0.24
5017 H 10.888410706627894 50.57915811183719 96.90443454261055 H 0.0 **** 0.06
5018 H 10.090168628605284 52.04541033381753 97.52257168363059 H 0.0 **** 0.06
5019 H 11.195324407268913 51.12353430611866 98.57067942103072 H 0.0 **** 0.06
5020 H 9.609037213416627 50.44406790734919 98.13381346836786 H 0.0 **** 0.06
5021 C 75.8946036830925 110.56734326692535 10.281613042783846 C 0.0 **** -0.24
5022 H 75.79147873098273 109.48575642104652 10.183285117886925 H 0.0 **** 0.06
5023 H 75.06988787646787 110.95759547311025 10.878047650478706 H 0.0 **** 0.06
5024 H 75.87825180908791 111.02530825788025 9.292864917688476 H 0.0 **** 0.06
5025 H 76.83977995556867 110.79743274895904 10.773762248424077 H 0.0 **** 0.06
5026 C 100.38697169881584 16.319791240551275 46.432756546412776 C 0.0 **** -0.24
5027 H 101.12391437351846 16.514545251457754 47.21256779463556 H 0.0 **** 0.06
5028 H 100.51554173805971 17.040175335090822 45.6248681332215 H 0.0 **** 0.06
5029 H 99.3841738437767 16.415106209200417 46.84918745751139 H 0.0 **** 0.06
5030 H 100.52653805268324 15.31059029245855 46.046689409985504 H 0.0 **** 0.06
5031 C 0.7143359653397283 159.3304646691768 0.12841339179556144 C 0.0 **** -0.24
5032 H 1.4710577778478182 159.45779801562156 -0.6450958040130104 H 0.0 **** 0.06
5033 H 1.0358128755913185 158.55966227370277 0.8283815552132978 H 0.0 **** 0.06
5034 H -0.22879476787124986 159.03279425502797 -0.3316909192300841 H 0.0 **** 0.06
5035 H 0.5769069107552696 160.27159689452714 0.6614064414885092 H 0.0 **** 0.06
5036 C 110.36301259426472 128.46199853191231 64.36595864410741 C 0.0 **** -0.24
5037 H 110.47868193007008 129.5340100028082 64.20732010430157 H 0.0 **** 0.06
5038 H 111.34591697235402 127.99111112271117 64.40288081956155 H 0.0 **** 0.06
5039 H 109.78513054835332 128.03408147528054 63.546585390997194 H 0.0 **** 0.06
5040 H 109.84128830087104 128.28935241542092 65.3078351190122 H 0.0 **** 0.06
5041 C 100.23404644241032 97.12563522481784 132.9073165611972 C 0.0 **** -0.24
5042 H 100.97661610998563 97.3664608104923 132.14730111323007 H 0.0 **** 0.06
5043 H 99.94502619957524 96.07938280929764 132.81352244756152 H 0.0 **** 0.06
5044 H 99.3577052417748 97.75872272078246 132.77252236562907 H 0.0 **** 0.06
5045 H 100.6581295107751 97.29888360444508 133.89663185430175 H 0.0 **** 0.06
5046 C 3.6854109556817605 60.13773381926211 106.60652168580779 C 0.0 **** -0.24
5047 H 4.075304193038733 61.023744494267646 107.10711085749901 H 0.0 **** 0.06
5048 H 3.027007666053265 60.44102588233717 105.79149391710774 H 0.0 **** 0.06
5049 H 3.1249633033372106 59.533817859971535 107.3210111272102 H 0.0 **** 0.06
5050 H 4.512837797811699 59.55286181760725 106.20584510317352 H 0.0 **** 0.06
5051 C 29.05186089328413 147.00962951250696 94.99794454230698 C 0.0 **** -0.24
5052 H 28.661501094186576 145.9927987118662 94.94944143708608 H 0.0 **** 0.06
5053 H 28.48717828077207 147.6490724021225 94.31966324730283 H 0.0 **** 0.06
5054 H 30.10309644780611 147.0082438413412 94.7070749520201 H 0.0 **** 0.06
5055 H 28.95823475571359 147.38597504353328 96.01631645637417 H 0.0 **** 0.06
5056 C 19.44484797050623 162.99034570224765 144.14200270050458 C 0.0 **** -0.24
5057 H 19.062317054140294 163.79357990862692 144.77137387823467 H 0.0 **** 0.06
5058 H 18.927777465692202 163.00331583473425 143.18224384042225 H 0.0 **** 0.06
5059 H 19.275446607240838 162.03141785986176 144.63328245577017 H 0.0 **** 0.06
5060 H 20.513595381119444 163.13169807325443 143.98087645735097 H 0.0 **** 0.06
5061 C 96.38444211741651 82.08080312205753 89.47618277842041 C 0.0 **** -0.24
5062 H 96.24985224458868 81.78360748435325 90.51554193920495 H 0.0 **** 0.06
5063 H 97.44935349105762 82.11121872031191 89.24125108622238 H 0.0 **** 0.06
5064 H 95.94926242444308 83.06877609780892 89.32029093860614 H 0.0 **** 0.06
5065 H 95.88921170712231 81.35902211467582 88.82527091531597 H 0.0 **** 0.06
5066 C 103.38507464419666 105.475572303544 97.51979521497836 C 0.0 **** -0.24
5067 H 102.76126975664582 104.77732304343863 98.07736637920792 H 0.0 **** 0.06
5068 H 102.94703507242343 106.47342651084224 97.56874980850628 H 0.0 **** 0.06
5069 H 103.44780242796247 105.15633554076584 96.47987056541757 H 0.0 **** 0.06
5070 H 104.38432194838407 105.49659796956834 97.95520415272804 H 0.0 **** 0.06
5071 C 134.6318131453097 2.5063344312378035 60.7313174421423 C 0.0 **** -0.24
5072 H 135.55958841449996 1.9445011079740766 60.8371689349041 H 0.0 **** 0.06
5073 H 134.46859890117096 2.7434933355543194 59.67927609621866 H 0.0 **** 0.06
5074 H 134.69779497375453 3.4296846439146975 61.306836311896916 H 0.0 **** 0.06
5075 H 133.7992535668995 1.9068178901974875 61.101512921352324 H 0.0 **** 0.06
5076 C 116.50135998238156 125.27997693746741 140.07129864976082 C 0.0 **** -0.24
5077 H 115.47187567454347 125.13667043679015 140.40053338433103 H 0.0 **** 0.06
5078 H 116.95042370251224 124.31062845323018 139.85355454931658 H 0.0 **** 0.06
5079 H 117.06873937818517 125.77399301542266 140.859750872606 H 0.0 **** 0.06
5080 H 116.51297118605706 125.89629383815898 139.17295694858444 H 0.0 **** 0.06
5081 C 37.931323478773265 30.812851311804508 30.329827195067537 C 0.0 **** -0.24
5082 H 36.92296161979863 30.58812728205693 30.678179993201923 H 0.0 **** 0.06
5083 H 38.35606863482471 29.928637990369126 29.853662765512382 H 0.0 **** 0.06
5084 H 38.55221785062051 31.103925888943365 31.1772255433047 H 0.0 **** 0.06
5085 H 37.892063396553965 31.630736331593425 29.609976557087066 H 0.0 **** 0.06
5086 C 142.0164305489862 69.78718430481598 144.601285787248 C 0.0 **** -0.24
5087 H 141.62377713014757 70.47909412825237 143.856258089397 H 0.0 **** 0.06
5088 H 141.45697938586943 68.85241010249962 144.5593598503688 H 0.0 **** 0.06
5089 H 141.9152173781647 70.22717375416488 145.5932995767734 H 0.0 **** 0.06
5090 H 143.06896781675215 69.5906400684488 144.39645693923205 H 0.0 **** 0.06
5091 C 143.08838729111994 100.33478613895016 66.1418368295255 C 0.0 **** -0.24
5092 H 144.00881347330397 100.60626785263733 66.65993772816907 H 0.0 **** 0.06
5093 H 142.91392295858492 99.26343170308402 66.24940588694083 H 0.0 **** 0.06
5094 H 143.18013257706866 100.58297229212792 65.08389843204225 H 0.0 **** 0.06
5095 H 142.25278887062177 100.88463223879316 66.57369757331432 H 0.0 **** 0.06
5096 C 133.32989962172752 140.0264675823914 101.61196635104409 C 0.0 **** -0.24
5097 H 133.2534486778755 140.89099352699682 100.95147837372733 H 0.0 **** 0.06
5098 H 134.35560595244675 139.65884728935498 101.6120262615274 H 0.0 **** 0.06
5099 H 132.6613437940327 139.24064321933773 101.25939099728012 H 0.0 **** 0.06
5100 H 133.04689283231772 140.31635320539743 102.62364992536419 H 0.0 **** 0.06
5101 C 9.049954932564098 98.07945286146224 52.34680314089347 C 0.0 **** -0.24
5102 H 8.167574162382593 97.63648106404145 52.80983594676567 H 0.0 **** 0.06
5103 H 9.020981516498729 97.90678311787815 51.27131029363211 H 0.0 **** 0.06
5104 H 9.946500563347584 97.62364492660981 52.76552406153378 H 0.0 **** 0.06
5105 H 9.062056315104101 99.15131401681188 52.54309218826947 H 0.0 **** 0.06
5106 C 52.26781760615029 132.94057494610064 99.7967805335854 C 0.0 **** -0.24
5107 H 51.252425328348366 132.8685624568264 100.18663167320815 H 0.0 **** 0.06
5108 H 52.23380211854105 133.04631344023682 98.71254970176903 H 0.0 **** 0.06
5109 H 52.82197893475825 132.0386816717699 100.0575120801168 H 0.0 **** 0.06
5110 H 52.76241633141801 133.8098557256214 100.23101230669255 H 0.0 **** 0.06
5111 C 95.32144473803174 77.68744070890443 74.43650411625322 C 0.0 **** -0.24
5112 H 95.10612978946165 78.74190679949959 74.2633743228132 H 0.0 **** 0.06
5113 H 95.67031594166207 77.23112334312111 73.50929617127055 H 0.0 **** 0.06
5114 H 94.41514184984658 77.1823515042447 74.77117883374211 H 0.0 **** 0.06
5115 H 96.0929193789982 77.59499741544045 75.2001665202299 H 0.0 **** 0.06
5116 C 3.319668561396952 25.22263333454825 65.14559504759266 C 0.0 **** -0.24
5117 H 4.161113105900881 25.648932226500733 64.59795688058045 H 0.0 **** 0.06
5118 H 3.073795873959682 24.24625871885479 64.72783264915108 H 0.0 **** 0.06
5119 H 2.457766663956363 25.88363450412993 65.05792669115422 H 0.0 **** 0.06
5120 H 3.588591860752274 25.11219475388731 66.19534154974554 H 0.0 **** 0.06
5121 C 84.54179142955434 138.90059826460353 27.899625025529133 C 0.0 **** -0.24
5122 H 84.14480136011474 139.10563685447016 26.904801784785604 H 0.0 **** 0.06
5123 H 83.84341899178895 138.26412879250813 28.444195287111384 H 0.0 **** 0.06
5124 H 84.67512642755594 139.8387229480651 28.43767151106131 H 0.0 **** 0.06
5125 H 85.50197365080885 138.39344795860674 27.80930430822434 H 0.0 **** 0.06
5126 C 142.02927516123228 155.50714032983433 123.22967044444081 C 0.0 **** -0.24
5127 H 142.55733902387826 154.61089857695077 122.90406107276289 H 0.0 **** 0.06
5128 H 141.2491651442561 155.75124576028222 122.5080839243125 H 0.0 **** 0.06
5129 H 142.73169422952427 156.33711210896053 123.30117892373326 H 0.0 **** 0.06
5130 H 141.57828069760777 155.32776630655883 124.20585441780278 H 0.0 **** 0.06
5131 C 140.43482655005238 112.3976150255885 134.2632358218854 C 0.0 **** -0.24
5132 H 140.0023143946732 111.92658372987083 133.3805116634146 H 0.0 **** 0.06
5133 H 140.24656597804073 113.47078523654756 134.23069595488911 H 0.0 **** 0.06
5134 H 141.50937988219556 112.21665371427432 134.280623011433 H 0.0 **** 0.06
5135 H 139.97925289466025 111.97521888945138 135.159972343704 H 0.0 **** 0.06
5136 C 115.12792199906696 94.18924785759913 135.0979112184849 C 0.0 **** -0.24
5137 H 115.07609969806091 95.2501048550319 134.8538312043844 H 0.0 **** 0.06
5138 H 116.1361981231428 93.82173438336343 134.90598076058097 H 0.0 **** 0.06
5139 H 114.41738630548608 93.63989207616419 134.47996101814698 H 0.0 **** 0.06
5140 H 114.8826562416115 94.04658905676581 136.15019604286405 H 0.0 **** 0.06
5141 C 164.5338457499038 123.76959618615626 21.09829738979616 C 0.0 **** -0.24
5142 H 163.81552178535395 124.56051958982141 21.311295050345024 H 0.0 **** 0.06
5143 H 164.4769406347878 123.00811052622032 21.875448953890697 H 0.0 **** 0.06
5144 H 165.5397274456034 124.18978767531547 21.072600360421177 H 0.0 **** 0.06
5145 H 164.30350214782692 123.3202303474996 20.13164626899163 H 0.0 **** 0.06
5146 C 0.6858417781054413 171.17222831078837 32.01026596336209 C 0.0 **** -0.24
5147 H -0.20416341596535403 171.48796243559147 32.554885014159595 H 0.0 **** 0.06
5148 H 0.7445843810709221 170.08355704830757 32.011811727271436 H 0.0 **** 0.06
5149 H 1.57217188550851 171.5857413842083 32.49116933886506 H 0.0 **** 0.06
5150 H 0.6293712919984955 171.53130464924448 30.981815429414837 H 0.0 **** 0.06
5151 C 14.446625692885789 23.442296105110643 35.3893323361616 C 0.0 **** -0.24
5152 H 14.691226668210504 23.217252864011584 34.350993228720824 H 0.0 **** 0.06
5153 H 14.679616995733454 24.48675885745206 35.59934145498818 H 0.0 **** 0.06
5154 H 15.030835863182233 22.800433173548583 36.04815599821325 H 0.0 **** 0.06
5155 H 13.383964850041309 23.265835556190922 35.55908752319101 H 0.0 **** 0.06
5156 C 45.168998483398596 83.78401570169703 70.68836275089139 C 0.0 **** -0.24
5157 H 44.99389031558242 82.75205870434209 70.38526037131831 H 0.0 **** 0.06
5158 H 46.23920768185768 83.94969046152353 70.81314391082176 H 0.0 **** 0.06
5159 H 44.65910196882477 83.97683185315321 71.63352238191956 H 0.0 **** 0.06
5160 H 44.78235673029741 84.45733839826096 69.92350271175457 H 0.0 **** 0.06
5161 C 141.7850588400975 171.4583400100664 33.9043238993637 C 0.0 **** -0.24
5162 H 142.0529786806789 172.51475847934108 33.918257987766964 H 0.0 **** 0.06
5163 H 141.47558454786775 171.14896534121007 34.90283637962477 H 0.0 **** 0.06
5164 H 142.64861247860048 170.86940348590593 33.59265883274418 H 0.0 **** 0.06
5165 H 140.96605711004534 171.3003218636594 33.20345544921739 H 0.0 **** 0.06
5166 C 110.2016451309795 107.8162348556408 41.56540303008768 C 0.0 **** -0.24
5167 H 109.33373930492564 107.15677268242288 41.579661755364896 H 0.0 **** 0.06
5168 H 111.07664443208122 107.27340893145862 41.924534560916584 H 0.0 **** 0.06
5169 H 110.0160271519816 108.67552063956612 42.21016430741861 H 0.0 **** 0.06
5170 H 110.37935865463993 108.15940015398334 40.54610441218699 H 0.0 **** 0.06
5171 C 139.8366589419968 76.1004101708651 81.24515847264132 C 0.0 **** -0.24
5172 H 139.92129820022868 75.12417452141047 81.72329376476004 H 0.0 **** 0.06
5173 H 138.98900859915545 76.63854841269016 81.66920836233427 H 0.0 **** 0.06
5174 H 139.68490015397782 75.96918111961425 80.1743385260593 H 0.0 **** 0.06
5175 H 140.75092951291694 76.66878707732785 81.4164103486945 H 0.0 **** 0.06
5176 C 93.64154656527347 110.20003135357456 133.9473789178298 C 0.0 **** -0.24
5177 H 92.56705507154834 110.02174756933749 133.9044009126094 H 0.0 **** 0.06
5178 H 94.07504536371567 110.04175802595753 132.95956742344973 H 0.0 **** 0.06
5179 H 94.09582261349522 109.51119924799175 134.65904299979124 H 0.0 **** 0.06
5180 H 93.82702869473866 111.22583625342676 134.26595367196174 H 0.0 **** 0.06
5181 C 47.35575190695289 92.34229948725931 108.34244010820234 C 0.0 **** -0.24
5182 H 48.04357694679757 92.75507220647938 107.60500702024379 H 0.0 **** 0.06
5183 H 47.91823644009324 91.9905760781555 109.20714524314977 H 0.0 **** 0.06
5184 H 46.8072420157535 91.50892754397115 107.90184695427428 H 0.0 **** 0.06
5185 H 46.652558792429176 93.11438406365642 108.65571962138426 H 0.0 **** 0.06
5186 C 171.77505100327184 168.12298224220774 167.62131796248966 C 0.0 **** -0.24
5187 H 172.08924668590134 167.43930381484031 166.83231157358452 H 0.0 **** 0.06
5188 H 171.88272654143074 169.15060532472302 167.27513889702323 H 0.0 **** 0.06
5189 H 172.39552825482878 167.9695917207807 168.50419819804944 H 0.0 **** 0.06
5190 H 170.7315430535562 167.93120374076315 167.873227429233 H 0.0 **** 0.06
5191 C 147.62374637923875 126.22380842133987 97.00738138956672 C 0.0 **** -0.24
5192 H 147.93252957673417 126.36776802974674 98.04291350465058 H 0.0 **** 0.06
5193 H 148.2120796655696 125.4218904643156 96.56218064817617 H 0.0 **** 0.06
5194 H 147.78462334476166 127.14578301520001 96.44893297982713 H 0.0 **** 0.06
5195 H 146.5662019646801 125.9601858368982 96.97860385283778 H 0.0 **** 0.06
5196 C 16.755474467013954 2.5231353093314226 84.90631181135277 C 0.0 **** -0.24
5197 H 16.04956628321179 2.848194796392434 84.14188774262882 H 0.0 **** 0.06
5198 H 16.810183736952354 1.4346794110262522 84.91149144195408 H 0.0 **** 0.06
5199 H 16.42159004014144 2.875865206692417 85.88252388663992 H 0.0 **** 0.06
5200 H 17.74116470379809 2.9361152045105356 84.68987343004193 H 0.0 **** 0.06
5201 C 166.14431041841064 169.381648834251 159.86171488039133 C 0.0 **** -0.24
5202 H 166.25821325120202 168.57651340383842 159.13604673291724 H 0.0 **** 0.06
5203 H 165.2879265391404 169.1738140408992 160.50266301829663 H 0.0 **** 0.06
5204 H 165.9862316527168 170.32353935714306 159.33661534180789 H 0.0 **** 0.06
5205 H 167.04647825697472 169.45153431218176 160.4705403348106 H 0.0 **** 0.06
5206 C 72.84283614655294 147.20169368739016 68.46608990322898 C 0.0 **** -0.24
5207 H 71.81983902422633 147.43921792829144 68.75643845878204 H 0.0 **** 0.06
5208 H 73.094581539214 146.19933130071405 68.81468871369253 H 0.0 **** 0.06
5209 H 73.52527838822402 147.9240658417196 68.91445611049869 H 0.0 **** 0.06
5210 H 72.93227626779367 147.24165820476583 67.38108831272143 H 0.0 **** 0.06
5211 C 121.92672611912127 171.70011479711172 62.96811740504879 C 0.0 **** -0.24
5212 H 120.92775271752129 172.00191959643786 63.282420098535454 H 0.0 **** 0.06
5213 H 122.48970748776222 172.5804597481083 62.65631624918311 H 0.0 **** 0.06
5214 H 121.84926771329967 171.00311536745204 62.13436016009929 H 0.0 **** 0.06
5215 H 122.43817531827347 171.21684116380914 63.800586922860035 H 0.0 **** 0.06
5216 C 71.93037462869535 95.54567791393967 47.4649945551522 C 0.0 **** -0.24
5217 H 72.91640482068976 95.47155760319572 47.9228698715704 H 0.0 **** 0.06
5218 H 71.27188217489243 94.7911958711849 47.8938927765753 H 0.0 **** 0.06
5219 H 72.01680354824128 95.38443667705968 46.39039021198933 H 0.0 **** 0.06
5220 H 71.51783783142423 96.53789315785801 47.65030918290043 H 0.0 **** 0.06
5221 C 32.448076351047234 168.2952491715036 29.897763338956835 C 0.0 **** -0.24
5222 H 32.00854044711474 167.31176889655043 30.06222885327898 H 0.0 **** 0.06
5223 H 33.363910824563646 168.38539015542813 30.481654593306857 H 0.0 **** 0.06
5224 H 31.741443478106902 169.06585257324141 30.208817378848707 H 0.0 **** 0.06
5225 H 32.67719304926217 168.41895765766998 28.839108557398035 H 0.0 **** 0.06
5226 C 61.8608722928258 40.40274005692129 155.92008347217504 C 0.0 **** -0.24
5227 H 62.204721261390546 39.566423172104805 156.5285340728961 H 0.0 **** 0.06
5228 H 61.51514659182537 41.206947033683605 156.57147285841327 H 0.0 **** 0.06
5229 H 61.04052319745817 40.07471410516973 155.2813241002171 H 0.0 **** 0.06
5230 H 62.68138775037451 40.76385458400728 155.30103191296453 H 0.0 **** 0.06
5231 C 35.39953703802462 30.143751173053317 127.57955591448518 C 0.0 **** -0.24
5232 H 35.991360998350245 30.35737863145809 126.6892150202809 H 0.0 **** 0.06
5233 H 34.82346662360165 29.23129977564406 127.4221724957136 H 0.0 **** 0.06
5234 H 34.71891166633836 30.973830874216162 127.77090899234426 H 0.0 **** 0.06
5235 H 36.062892132239455 30.012028113062115 128.4343519360473 H 0.0 **** 0.06
5236 C 67.68612321247576 58.21209630578369 4.551302740691433 C 0.0 **** -0.24
5237 H 66.69247511098843 57.832097128753105 4.308866505435134 H 0.0 **** 0.06
5238 H 68.32692906217471 58.13958279600075 3.6720844164911384 H 0.0 **** 0.06
5239 H 68.11249688918531 57.62165329298375 5.361530293598925 H 0.0 **** 0.06
5240 H 67.60981926581553 59.254220413563985 4.861941185500584 H 0.0 **** 0.06
5241 C 87.13255184568621 107.32144231809386 79.66213927999289 C 0.0 **** -0.24
5242 H 87.89937214614135 106.65355953164925 80.05386543359302 H 0.0 **** 0.06
5243 H 87.05380091799985 108.1994909561 80.3040809424824 H 0.0 **** 0.06
5244 H 86.17492704380018 106.80033223865601 79.63930865534196 H 0.0 **** 0.06
5245 H 87.40109888675335 107.63107840476019 78.65311097984625 H 0.0 **** 0.06
5246 C 27.213130095468834 27.58788144215236 126.68476968152962 C 0.0 **** -0.24
5247 H 26.945765641430697 28.269525781856757 125.87660109751187 H 0.0 **** 0.06
5248 H 27.052022337828475 28.08051484328172 127.64352919301004 H 0.0 **** 0.06
5249 H 28.261598661038306 27.308045496440712 126.59104323177476 H 0.0 **** 0.06
5250 H 26.590980675023687 26.694347336717783 126.6260235409313 H 0.0 **** 0.06
5251 C 111.97725712696791 144.26033131014822 105.09447207389309 C 0.0 **** -0.24
5252 H 112.04792365885618 144.5731485924156 104.05257439058067 H 0.0 **** 0.06
5253 H 111.84369420267399 145.13670782190334 105.72833982638261 H 0.0 **** 0.06
5254 H 112.89187675832699 143.74057931641278 105.37904186735994 H 0.0 **** 0.06
5255 H 111.12590337664795 143.59089185683314 105.21479155017852 H 0.0 **** 0.06
5256 C 159.0980119516288 48.608532138410624 61.75348915823868 C 0.0 **** -0.24
5257 H 158.47071744696046 49.45339231833783 62.037973022519225 H 0.0 **** 0.06
5258 H 159.69840344984374 48.29827273682227 62.60856069404734 H 0.0 **** 0.06
5259 H 159.75528530157325 48.90367978528535 60.93536337039974 H 0.0 **** 0.06
5260 H 158.46683476093034 47.77934507540776 61.431875431936405 H 0.0 **** 0.06
5261 C 108.70884660410155 118.71791485494498 28.35797267197256 C 0.0 **** -0.24
5262 H 109.03175261286299 118.40936960360057 27.36366601770328 H 0.0 **** 0.06
5263 H 109.00513054288018 119.75283652480414 28.53128213998548 H 0.0 **** 0.06
5264 H 109.17388991944813 118.07675669999577 29.106676962568827 H 0.0 **** 0.06
5265 H 107.62461334121491 118.63269659137927 28.430265567632546 H 0.0 **** 0.06
5266 C 15.984820448712867 170.68321721460177 10.120645449741438 C 0.0 **** -0.24
5267 H 15.317818576606669 169.84002987513355 9.941182926945984 H 0.0 **** 0.06
5268 H 16.952148788982413 170.48420544274194 9.660033503769426 H 0.0 **** 0.06
5269 H 16.114056796742375 170.82049992067022 11.19423504130701 H 0.0 **** 0.06
5270 H 15.553206116517543 171.58586576149764 9.68793554731851 H 0.0 **** 0.06
5271 C 24.58192892204454 120.43264008046404 169.46768719421337 C 0.0 **** -0.24
5272 H 25.610816152199646 120.07674333648589 169.40826682891702 H 0.0 **** 0.06
5273 H 23.901805536110373 119.62221143160573 169.20336201279383 H 0.0 **** 0.06
5274 H 24.44431970710113 121.26384075356353 168.77679769243184 H 0.0 **** 0.06
5275 H 24.372286221560188 120.76575479419466 170.48423906990635 H 0.0 **** 0.06
5276 C 167.60561133639777 81.87926513327784 30.61173803697602 C 0.0 **** -0.24
5277 H 168.52570705381123 81.36287444575441 30.34001265203591 H 0.0 **** 0.06
5278 H 167.50532239720928 82.78380871318251 30.01073698569303 H 0.0 **** 0.06
5279 H 167.63756978469635 82.1471575602962 31.667873204995317 H 0.0 **** 0.06
5280 H 166.75435892685027 81.22513746999175 30.428084917154763 H 0.0 **** 0.06
5281 C 166.06977731112707 10.883243577666036 117.52411063945482 C 0.0 **** -0.24
5282 H 165.1370242405505 11.262833991482204 117.10767697581261 H 0.0 **** 0.06
5283 H 166.8271415902169 11.667707897279271 117.4944068632065 H 0.0 **** 0.06
5284 H 166.40885544119598 10.028352861785642 116.9386791038236 H 0.0 **** 0.06
5285 H 165.90678944786416 10.574507798048295 118.55683052788149 H 0.0 **** 0.06
5286 C 75.19464723315559 74.21036865961305 132.64680683758792 C 0.0 **** -0.24
5287 H 74.50159879961605 73.37672397077131 132.75863964904423 H 0.0 **** 0.06
5288 H 75.74432806737629 74.35308872095001 133.57699184074377 H 0.0 **** 0.06
5289 H 74.63581457275814 75.11641785325726 132.41172363524862 H 0.0 **** 0.06
5290 H 75.89387698735966 73.994852612738 131.83972026735825 H 0.0 **** 0.06
5291 C 143.1006780009303 93.11076161255798 96.44441990947595 C 0.0 **** -0.24
5292 H 143.68301006688435 92.65656659246363 97.24488126328819 H 0.0 **** 0.06
5293 H 142.98899112484534 94.17808105968436 96.63668649191811 H 0.0 **** 0.06
5294 H 142.11638809819493 92.64406763400407 96.40153269674329 H 0.0 **** 0.06
5295 H 143.61359679212742 92.96390525989077 95.49344265649324 H 0.0 **** 0.06
5296 C 27.232274812547985 29.272669256745417 122.80803061164846 C 0.0 **** -0.24
5297 H 28.13692769337274 29.84722470974954 123.0069461238113 H 0.0 **** 0.06
5298 H 26.963203607344525 29.37251508625168 121.75630788550768 H 0.0 **** 0.06
5299 H 26.41948466574854 29.650223268922076 123.4283050065273 H 0.0 **** 0.06
5300 H 27.409166293589806 28.222924536079958 123.0406775333683 H 0.0 **** 0.06
5301 C 106.00253778176321 169.66569638425187 143.968931451122 C 0.0 **** -0.24
5302 H 104.98485825263222 169.2744118607398 143.9539645639234 H 0.0 **** 0.06
5303 H 106.59670873267694 169.16102223990805 143.20648991194273 H 0.0 **** 0.06
5304 H 106.44481806090243 169.489321361044 144.95025007200186 H 0.0 **** 0.06
5305 H 105.98321751940239 170.73655080468637 143.76689502457387 H 0.0 **** 0.06
5306 C 48.51197632020251 58.67957519247098 69.29102669662217 C 0.0 **** -0.24
5307 H 49.522198489737505 58.83326560074765 69.66950337011411 H 0.0 **** 0.06
5308 H 47.91115919710202 58.18122291848047 70.051527169532 H 0.0 **** 0.06
5309 H 48.5516220966432 58.058471605071745 68.39487001590737 H 0.0 **** 0.06
5310 H 48.06535651017154 59.64210554504986 69.04583454048614 H 0.0 **** 0.06
5311 C 127.70041705685281 93.36273712917998 111.51468315579729 C 0.0 **** -0.24
5312 H 128.33540538703357 92.48016556291034 111.43345228847568 H 0.0 **** 0.06
5313 H 127.4629699485294 93.73149000207107 110.51641846316312 H 0.0 **** 0.06
5314 H 128.22469584155283 94.13760289452966 112.07416862691773 H 0.0 **** 0.06
5315 H 126.7789991522755 93.10000628269623 112.03463578869497 H 0.0 **** 0.06
5316 C 24.736530525013386 80.72982110531274 90.99570794207568 C 0.0 **** -0.24
5317 H 23.798765665578514 80.3965021196939 91.44099293650817 H 0.0 **** 0.06
5318 H 24.663160813185698 81.78894223060797 90.74608713070177 H 0.0 **** 0.06
5319 H 24.932986247474723 80.15559349355357 90.09010869654134 H 0.0 **** 0.06
5320 H 25.54978249672525 80.57964752736092 91.70560462886385 H 0.0 **** 0.06
5321 C 99.5253961846154 158.11235010938634 67.98609528855357 C 0.0 **** -0.24
5322 H 99.86200316186037 157.9867894981429 66.9562654467073 H 0.0 **** 0.06
5323 H 99.4032594510335 159.1746873545567 68.20130780702002 H 0.0 **** 0.06
5324 H 100.26465575882165 157.68688129435236 68.66444825192026 H 0.0 **** 0.06
5325 H 98.57200029102404 157.60316491492833 68.12118358408073 H 0.0 **** 0.06
5326 C 99.62813058029144 34.813531651841174 147.2332156247932 C 0.0 **** -0.24
5327 H 99.22694158838164 33.79964990293669 147.23439866659524 H 0.0 **** 0.06
5328 H 99.48525094688117 35.259257795292484 146.24915222100557 H 0.0 **** 0.06
5329 H 100.69233466153597 34.78282872168586 147.4671668835151 H 0.0 **** 0.06
5330 H 99.10881320502713 35.410397308997545 147.98274416042827 H 0.0 **** 0.06
5331 C 161.0738212862586 29.906079350113657 10.924621910772565 C 0.0 **** -0.24
5332 H 162.1028882718204 30.2273760155896 10.762990281755613 H 0.0 **** 0.06
5333 H 160.59935661871737 29.710233996224588 9.961924594973908 H 0.0 **** 0.06
5334 H 160.52615832785366 30.690509048640152 11.447167146234477 H 0.0 **** 0.06
5335 H 161.06661708011202 28.995847199925592 11.524213202140857 H 0.0 **** 0.06
5336 C 36.05044137054688 92.43134458397668 77.07468857520153 C 0.0 **** -0.24
5337 H 36.71895743044257 92.26093229395627 77.91929271195644 H 0.0 **** 0.06
5338 H 35.05369886679978 92.06390414184108 77.3208310449743 H 0.0 **** 0.06
5339 H 36.42772088866195 91.90156349765533 76.20024970472514 H 0.0 **** 0.06
5340 H 36.001541242167974 93.49900336532909 76.86010596761126 H 0.0 **** 0.06
5341 C 163.77464592631043 143.45455402548185 77.12855185942409 C 0.0 **** -0.24
5342 H 163.3794528261844 144.44773599428248 76.91316569466747 H 0.0 **** 0.06
5343 H 164.66700685220908 143.28077754427173 76.52643565469508 H 0.0 **** 0.06
5344 H 163.0219861186764 142.7041962142534 76.88864870029515 H 0.0 **** 0.06
5345 H 164.0308319207332 143.38761495137388 78.18622624256983 H 0.0 **** 0.06
5346 C 57.02962143981837 67.21415207457201 9.356385465382573 C 0.0 **** -0.24
5347 H 56.686811370315965 66.35152785321958 8.784798288349066 H 0.0 **** 0.06
5348 H 57.31488242815925 66.89584274067346 10.35900080375788 H 0.0 **** 0.06
5349 H 56.227404644140876 67.9482959939439 9.422332936329894 H 0.0 **** 0.06
5350 H 57.890228114198365 67.66047393491047 8.857391322454816 H 0.0 **** 0.06
5351 C 134.37503321552043 52.47316416525743 58.87487170826988 C 0.0 **** -0.24
5352 H 134.55713701213028 53.45641315796085 59.30693856568722 H 0.0 **** 0.06
5353 H 134.62371504409134 51.70307755715709 59.60693879841767 H 0.0 **** 0.06
5354 H 134.99440652277582 52.345052359714614 57.98734354167773 H 0.0 **** 0.06
5355 H 133.3231940768627 52.38682071897922 58.599492943597326 H 0.0 **** 0.06
5356 C 21.94732567677903 62.541299988720866 81.27821671713707 C 0.0 **** -0.24
5357 H 22.05402916515837 62.98424343414466 80.28808255931352 H 0.0 **** 0.06
5358 H 21.28733757749751 63.160972319447694 81.88431824642785 H 0.0 **** 0.06
5359 H 22.925562353310227 62.47726206810607 81.75455937760074 H 0.0 **** 0.06
5360 H 21.52248690777995 61.5411443407136 81.1840364172088 H 0.0 **** 0.06
5361 C 156.2589146409809 37.79244664787443 25.85912262430486 C 0.0 **** -0.24
5362 H 156.69571221432847 37.03856793602367 25.202869624327576 H 0.0 **** 0.06
5363 H 155.17622309675608 37.66732923428957 25.885273162679283 H 0.0 **** 0.06
5364 H 156.5021587010071 38.78550153879972 25.48290266020689 H 0.0 **** 0.06
5365 H 156.66345691977165 37.67519932811993 26.864942599682763 H 0.0 **** 0.06
5366 C 133.70775377826502 37.558934569193326 6.2883191453377165 C 0.0 **** -0.24
5367 H 134.42060383674047 38.275536189759464 6.697064927618115 H 0.0 **** 0.06
5368 H 132.81904730499136 38.08817104619669 5.943965038261922 H 0.0 **** 0.06
5369 H 133.42873430210886 36.84370500078455 7.061598500326447 H 0.0 **** 0.06
5370 H 134.16486535834622 37.030001041263745 5.451741877637268 H 0.0 **** 0.06
5371 C 125.57235335714492 11.380494982117966 55.62380671616461 C 0.0 **** -0.24
5372 H 126.32489668152851 11.973523505168288 55.10351168659491 H 0.0 **** 0.06
5373 H 125.93205985517793 11.13490701334942 56.62340513159984 H 0.0 **** 0.06
5374 H 125.38501217882111 10.462147555548768 55.06816524298091 H 0.0 **** 0.06
5375 H 124.6479337777642 11.953583621351612 55.700115676878 H 0.0 **** 0.06
5376 C 47.06068907907084 142.46522781123036 22.845888009179646 C 0.0 **** -0.24
5377 H 47.105887853741365 143.51083961014356 23.15251034529075 H 0.0 **** 0.06
5378 H 48.0359304321471 142.00192923677562 22.991952688381843 H 0.0 **** 0.06
5379 H 46.7835413765406 142.40782431257992 21.792880792935136 H 0.0 **** 0.06
5380 H 46.31615920650398 141.94338020482385 23.446512276020087 H 0.0 **** 0.06
5381 C 35.539073423305126 34.59173668433931 100.68614443133816 C 0.0 **** -0.24
5382 H 35.79853683277375 33.550068023973125 100.87861355486905 H 0.0 **** 0.06
5383 H 36.450348405160355 35.17430232004631 100.55356105204447 H 0.0 **** 0.06
5384 H 34.97359840417039 34.98661631497643 101.53051240818905 H 0.0 **** 0.06
5385 H 34.93236245741218 34.65339521279185 99.78246183936557 H 0.0 **** 0.06
5386 C 31.986489775239818 122.94646996602737 117.65879077134869 C 0.0 **** -0.24
5387 H 32.51805847742085 123.08032560808783 116.71737666002423 H 0.0 **** 0.06
5388 H 32.15938773522632 123.8114532856674 118.30017706313097 H 0.0 **** 0.06
5389 H 32.348037604140785 122.04740233607302 118.15634047449618 H 0.0 **** 0.06
5390 H 30.919103016831457 122.84839847016869 117.4617459411603 H 0.0 **** 0.06
5391 C 149.21005387621682 21.147690841903994 172.3026787415009 C 0.0 **** -0.24
5392 H 148.5636846667012 20.42147027713844 171.80930187185524 H 0.0 **** 0.06
5393 H 148.65803178246 21.63789244887318 173.10529771015982 H 0.0 **** 0.06
5394 H 149.53696997214888 21.89325087298799 171.5775626796514 H 0.0 **** 0.06
5395 H 150.07923465053744 20.638102137292982 172.7163770233647 H 0.0 **** 0.06
5396 C 19.362382797198507 65.97441465335277 31.78598475375705 C 0.0 **** -0.24
5397 H 19.57843833980189 65.63089331511165 30.77421784143384 H 0.0 **** 0.06
5398 H 19.046511366652084 67.01712671978481 31.75526070583105 H 0.0 **** 0.06
5399 H 20.260138044094873 65.88462322230956 32.39863900867161 H 0.0 **** 0.06
5400 H 18.567333169595173 65.36509477264778 32.21419558916932 H 0.0 **** 0.06
5401 C 13.606523969612908 78.51199665133288 22.090357403453936 C 0.0 **** -0.24
5402 H 13.557684286549431 77.44645774678594 22.31370399603415 H 0.0 **** 0.06
5403 H 12.822101383893425 79.03401600784616 22.63920365703359 H 0.0 **** 0.06
5404 H 13.466256527351618 78.66539252950665 21.021022145185498 H 0.0 **** 0.06
5405 H 14.579980430572277 78.90081505326569 22.38957130721232 H 0.0 **** 0.06
5406 C 103.24054192842655 171.27143455383026 107.33042722614059 C 0.0 **** -0.24
5407 H 102.69842401657544 172.21626253487082 107.36397465747544 H 0.0 **** 0.06
5408 H 104.08547293335909 171.3625476114112 106.64736558055233 H 0.0 **** 0.06
5409 H 102.57368065478633 170.48323130004002 106.98190629590405 H 0.0 **** 0.06
5410 H 103.60484979251478 171.02533472170975 108.32796261151097 H 0.0 **** 0.06
5411 C 155.08389948613836 22.55481777887715 120.38249931451844 C 0.0 **** -0.24
5412 H 155.17254145166925 23.230481859791865 121.23351744060992 H 0.0 **** 0.06
5413 H 154.12707295392676 22.71912732354292 119.88725943656002 H 0.0 **** 0.06
5414 H 155.14039394077207 21.522929879938317 120.73114378344331 H 0.0 **** 0.06
5415 H 155.89543725225775 22.746187728907813 119.68046001316588 H 0.0 **** 0.06
5416 C 123.69735022040919 23.24742385284147 9.736195819282706 C 0.0 **** -0.24
5417 H 124.25045232930105 23.803704592478155 8.979691378605274 H 0.0 **** 0.06
5418 H 122.89597814112545 23.871546617558096 10.13229651941085 H 0.0 **** 0.06
5419 H 124.37179520964378 22.964746094599064 10.544669340902857 H 0.0 **** 0.06
5420 H 123.27107842109405 22.350467827740125 9.287495014409494 H 0.0 **** 0.06
5421 C 55.78326143737155 32.09623528017414 95.27429455977617 C 0.0 **** -0.24
5422 H 56.68371284339436 31.822677319058926 95.8241358902352 H 0.0 **** 0.06
5423 H 54.9084751669582 31.91828855012733 95.89952901171102 H 0.0 **** 0.06
5424 H 55.71285097125502 31.49351653620738 94.36880537268004 H 0.0 **** 0.06
5425 H 55.829850128426955 33.15171586065901 95.00485543346531 H 0.0 **** 0.06
5426 C 152.53526135001482 122.65377735540903 51.77067198824358 C 0.0 **** -0.24
5427 H 153.40302969220272 123.26965900868956 52.007169520908064 H 0.0 **** 0.06
5428 H 151.7008502507463 122.94333443147016 52.410414934400364 H 0.0 **** 0.06
5429 H 152.77657771056366 121.60520580258836 51.940484399513025 H 0.0 **** 0.06
5430 H 152.26009998075344 122.7989286094624 50.726539578822894 H 0.0 **** 0.06
5431 C 152.1117856220889 82.84716808434742 138.1406500507594 C 0.0 **** -0.24
5432 H 152.8918045853316 82.1043964379984 138.30818478239644 H 0.0 **** 0.06
5433 H 152.4553421543646 83.81930676577335 138.49532525417732 H 0.0 **** 0.06
5434 H 151.21243606345016 82.55880708152138 138.6856789624511 H 0.0 **** 0.06
5435 H 151.88793934876207 82.90507300540274 137.0761806957122 H 0.0 **** 0.06
5436 C 72.49333442416825 100.79767614286311 55.7534575799325 C 0.0 **** -0.24
5437 H 73.11627594814273 100.94283855302879 54.87031832464095 H 0.0 **** 0.06
5438 H 72.06481314945768 101.75307892773634 56.0566146796821 H 0.0 **** 0.06
5439 H 73.10263962609433 100.39914336887449 56.56414121814481 H 0.0 **** 0.06
5440 H 71.69181487675398 100.09733612601195 55.52162915096943 H 0.0 **** 0.06
5441 C 163.25881975423937 89.48598743347317 37.14425297629168 C 0.0 **** -0.24
5442 H 163.19327766474314 90.55397279631718 36.936162402925675 H 0.0 **** 0.06
5443 H 162.78161310406608 88.92971397418975 36.33664423888396 H 0.0 **** 0.06
5444 H 162.75352512010323 89.26696760821596 38.08483462114114 H 0.0 **** 0.06
5445 H 164.30615788008646 89.19384032840587 37.217089020625735 H 0.0 **** 0.06
5446 C 94.93865156221744 37.44560376538632 15.839728731242303 C 0.0 **** -0.24
5447 H 95.26064232964072 38.2802070768071 16.462860703890584 H 0.0 **** 0.06
5448 H 95.52353256775524 36.559985055738025 16.0901122836423 H 0.0 **** 0.06
5449 H 95.08970645057849 37.696662107388846 14.78993431830807 H 0.0 **** 0.06
5450 H 93.88239268524987 37.24701766954854 16.018031561030227 H 0.0 **** 0.06
5451 C 79.91220131002306 64.69283414821594 120.595131361191 C 0.0 **** -0.24
5452 H 79.23861419994975 65.00612071095999 119.79677107176056 H 0.0 **** 0.06
5453 H 80.88334657656155 65.1689652348164 120.45928494210426 H 0.0 **** 0.06
5454 H 80.03019805951946 63.6095146737492 120.56567162763531 H 0.0 **** 0.06
5455 H 79.4945502010761 64.98780203178254 121.55811251498173 H 0.0 **** 0.06
5456 C 129.07671727124114 128.5458432989568 62.91097276291616 C 0.0 **** -0.24
5457 H 129.92049834925314 127.96526249538448 62.540295596697774 H 0.0 **** 0.06
5458 H 128.83113472077963 129.32932803268233 62.192903048409406 H 0.0 **** 0.06
5459 H 129.33948179169187 128.99918552895303 63.86660752888332 H 0.0 **** 0.06
5460 H 128.21466929833758 127.89155235086707 63.044069930512066 H 0.0 **** 0.06
5461 C 73.67012461287015 149.09961437093284 158.22888791580465 C 0.0 **** -0.24
5462 H 74.7599508033997 149.12669449459648 158.2601091171682 H 0.0 **** 0.06
5463 H 73.2914840959968 150.08090843514105 157.9404862131603 H 0.0 **** 0.06
5464 H 73.28498191197559 148.83527208758895 159.2123849259178 H 0.0 **** 0.06
5465 H 73.34656968899617 148.35734694906537 157.49900814608156 H 0.0 **** 0.06
5466 C 127.53192434473675 123.16448426050391 114.34151317255416 C 0.0 **** -0.24
5467 H 127.53198234902192 123.40164188576819 113.27820211358588 H 0.0 **** 0.06
5468 H 126.52593446727477 122.87898200419627 114.65060869185461 H 0.0 **** 0.06
5469 H 127.85248257445096 124.03869895192932 114.90847550774802 H 0.0 **** 0.06
5470 H 128.21835591881617 122.3377092229465 114.52901508365426 H 0.0 **** 0.06
5471 C 89.27157239427538 91.81814665496225 9.572599070397018 C 0.0 **** -0.24
5472 H 89.3315063796046 92.10850957082755 10.62077674472647 H 0.0 **** 0.06
5473 H 89.14353127933157 92.7086118569492 8.956421006058804 H 0.0 **** 0.06
5474 H 88.42072808767409 91.15205180513144 9.428749121488806 H 0.0 **** 0.06
5475 H 90.18842839419165 91.30419168151404 9.284389878402976 H 0.0 **** 0.06
5476 C 160.58238287286483 92.4871262186245 44.770366007389086 C 0.0 **** -0.24
5477 H 160.12457618928428 93.04927224568914 45.58416454699163 H 0.0 **** 0.06
5478 H 161.56568911314073 92.13341553182025 45.08142354424797 H 0.0 **** 0.06
5479 H 160.68779163375356 93.13312148584512 43.89802987442695 H 0.0 **** 0.06
5480 H 159.95201103920027 91.63498012219071 44.51714366665861 H 0.0 **** 0.06
5481 C 66.62629424475872 106.89314338281162 63.34205896978946 C 0.0 **** -0.24
5482 H 66.92714390954359 105.84556188258904 63.354414707917655 H 0.0 **** 0.06
5483 H 67.47321562040452 107.5104074005306 63.0431133417235 H 0.0 **** 0.06
5484 H 66.29382979691417 107.1883118970946 64.33769401722391 H 0.0 **** 0.06
5485 H 65.80988599540771 107.0283610532585 62.6313459561527 H 0.0 **** 0.06
5486 C 3.5377466604346637 134.43935530156676 58.197341360711235 C 0.0 **** -0.24
5487 H 4.225514839763129 134.62537499167934 57.37211544858765 H 0.0 **** 0.06
5488 H 2.767295984161265 135.21010809056574 58.20843503515398 H 0.0 **** 0.06
5489 H 4.087683048063951 134.45901429264973 59.138014346881064 H 0.0 **** 0.06
5490 H 3.072892271622486 133.46181170470737 58.068799144686395 H 0.0 **** 0.06
5491 C 22.896793852706537 20.91511116061082 37.19356373466803 C 0.0 **** -0.24
5492 H 23.670998798144694 21.22403893981967 37.89618064723069 H 0.0 **** 0.06
5493 H 23.322793554676878 20.221355612075342 36.467821551706265 H 0.0 **** 0.06
5494 H 22.508111644332274 21.79016291049895 36.67442145115416 H 0.0 **** 0.06
5495 H 22.08888585048706 20.423966878753383 37.73553248582999 H 0.0 **** 0.06
5496 C 58.723482337685766 89.87895823606391 157.8540551426639 C 0.0 **** -0.24
5497 H 59.13845300329069 90.50946324854215 158.64128191999845 H 0.0 **** 0.06
5498 H 58.10470102896002 89.10062218217064 158.30064540817915 H 0.0 **** 0.06
5499 H 59.53609274792893 89.41934113128877 157.29098530867483 H 0.0 **** 0.06
5500 H 58.11626136087679 90.48741695428947 157.18452707488083 H 0.0 **** 0.06
5501 C 156.3353328759954 22.84787789950701 95.26172715564363 C 0.0 **** -0.24
5502 H 156.06305129572138 23.174431888008854 96.26563423932657 H 0.0 **** 0.06
5503 H 156.65205167950762 23.70951180460864 94.67331877558641 H 0.0 **** 0.06
5504 H 155.4727293454626 22.3802049987589 94.78645943295581 H 0.0 **** 0.06
5505 H 157.15139826914037 22.12849385798586 95.32331478961876 H 0.0 **** 0.06
5506 C 107.33053615305741 71.82590638765106 113.20030110792777 C 0.0 **** -0.24
5507 H 106.57795684431608 72.10110394918105 113.93997664670914 H 0.0 **** 0.06
5508 H 108.32425221137328 71.95379737053022 113.62748540891599 H 0.0 **** 0.06
5509 H 107.2260988079039 72.46421519422447 112.32306859185641 H 0.0 **** 0.06
5510 H 107.19015546622225 70.78386731573558 112.91048209416806 H 0.0 **** 0.06
5511 C 157.7656208373074 154.836253281742 65.8705616682205 C 0.0 **** -0.24
5512 H 157.1430823359791 155.70528019760565 65.65441991533459 H 0.0 **** 0.06
5513 H 158.52458694161191 154.73095183496787 65.0958648115864 H 0.0 **** 0.06
5514 H 157.14288422780538 153.94164346664704 65.89467796740341 H 0.0 **** 0.06
5515 H 158.24963358017732 154.9682772731297 66.83884238576076 H 0.0 **** 0.06
5516 C 142.72092509288444 11.481596585509408 9.540097752702785 C 0.0 **** -0.24
5517 H 143.28956125327653 10.571217093724464 9.73021952453957 H 0.0 **** 0.06
5518 H 142.5737883348534 12.01944421873388 10.477211358977321 H 0.0 **** 0.06
5519 H 141.75212269795531 11.222201640672218 9.11398233566591 H 0.0 **** 0.06
5520 H 143.2692360579175 12.11229036210662 8.841520209337162 H 0.0 **** 0.06
5521 C 109.87260853961143 52.0828104361277 131.4391671040377 C 0.0 **** -0.24
5522 H 110.43608623980782 51.54372746003402 130.67666290656385 H 0.0 **** 0.06
5523 H 109.02887938074795 51.47354813190843 131.76380189321932 H 0.0 **** 0.06
5524 H 109.50581867943666 53.02113052376106 131.02299070049926 H 0.0 **** 0.06
5525 H 110.52061660004017 52.2900261260139 132.2903541434743 H 0.0 **** 0.06
5526 C 61.42984303672108 81.73246517474526 92.35844329613172 C 0.0 **** -0.24
5527 H 60.892882049460695 81.3045702202249 93.20452897037654 H 0.0 **** 0.06
5528 H 61.39425553197384 81.03981124314058 91.51761558283147 H 0.0 **** 0.06
5529 H 62.46807764795301 81.91003700116232 92.6398173147848 H 0.0 **** 0.06
5530 H 60.96534502430467 82.6761139934279 92.07218171895971 H 0.0 **** 0.06
5531 C 84.63863125590875 164.71301588343624 170.97681150574056 C 0.0 **** -0.24
5532 H 84.15697509181211 164.8807874410801 170.0141842713324 H 0.0 **** 0.06
5533 H 84.59356305557547 165.62573285931046 171.57035320096747 H 0.0 **** 0.06
5534 H 85.68028928793241 164.43408393394668 170.8182186490206 H 0.0 **** 0.06
5535 H 84.12425647442822 163.90921526583494 171.50529744559014 H 0.0 **** 0.06
5536 C 126.62452833109904 41.09335171000609 26.438690834879573 C 0.0 **** -0.24
5537 H 127.285580516859 41.26249667327451 25.588407242470296 H 0.0 **** 0.06
5538 H 126.36538292858057 40.03530576024235 26.491032487574536 H 0.0 **** 0.06
5539 H 125.71777811902194 41.684806034583914 26.31772811674761 H 0.0 **** 0.06
5540 H 127.13225059004782 41.38918624028895 27.35725833397641 H 0.0 **** 0.06
5541 C 93.47883252150808 105.64148392211146 169.33233157098883 C 0.0 **** -0.24
5542 H 92.66483699226933 106.18057912701957 169.81815649332782 H 0.0 **** 0.06
5543 H 93.80591161518106 104.82317348805555 169.9741473523793 H 0.0 **** 0.06
5544 H 94.3116603231457 106.32288693746324 169.15875459441784 H 0.0 **** 0.06
5545 H 93.13210210243582 105.24167992893774 168.3804235317073 H 0.0 **** 0.06
5546 C 145.27162178972213 118.55349746004677 42.076361565052 C 0.0 **** -0.24
5547 H 144.3889384380339 118.2933815826776 42.661357326887355 H 0.0 **** 0.06
5548 H 145.01381577779662 119.33206438491044 41.35822731884369 H 0.0 **** 0.06
5549 H 145.62739345781935 117.67116413521705 41.544724848394196 H 0.0 **** 0.06
5550 H 146.05416734213725 118.91697793763268 42.74219531173526 H 0.0 **** 0.06
5551 C 141.27843224956274 60.84485988378866 129.7164251280308 C 0.0 **** -0.24
5552 H 140.77762445876368 61.79099378228973 129.5121645675601 H 0.0 **** 0.06
5553 H 141.78003358878283 60.90083018353539 130.68277217745242 H 0.0 **** 0.06
5554 H 142.01302212973252 60.64774882410232 128.93509091847542 H 0.0 **** 0.06
5555 H 140.54290211234252 60.04122977330883 129.7353254484475 H 0.0 **** 0.06
5556 C 167.91836633593763 156.72313373624422 79.66828137131802 C 0.0 **** -0.24
5557 H 168.50481282007092 156.92960893061033 80.56382071308877 H 0.0 **** 0.06
5558 H 166.9527692498286 156.3045793943637 79.95580315266926 H 0.0 **** 0.06
5559 H 168.45189198101167 156.00857560090662 79.041279577159 H 0.0 **** 0.06
5560 H 167.76324343056217 157.64800950341342 79.11375107214712 H 0.0 **** 0.06
5561 C 7.43873922329891 116.71292962378067 80.23147890625538 C 0.0 **** -0.24
5562 H 7.8308060946770865 116.77572941325474 81.24665275521852 H 0.0 **** 0.06
5563 H 8.225811354411462 116.37172421516527 79.55807074598373 H 0.0 **** 0.06
5564 H 7.090604894181894 117.69660696992946 79.91583264487691 H 0.0 **** 0.06
5565 H 6.6069328907438205 116.0079052229027 80.20649799912496 H 0.0 **** 0.06
5566 C 70.79316920816036 84.25717860120116 81.80493318057248 C 0.0 **** -0.24
5567 H 71.19135833305566 83.73125115998062 82.67303510467802 H 0.0 **** 0.06
5568 H 70.46814919342374 83.53188234311884 81.05939076262872 H 0.0 **** 0.06
5569 H 71.57001756067764 84.89303120497286 81.379674078729 H 0.0 **** 0.06
5570 H 69.94552420634528 84.8712903847708 82.10896911986048 H 0.0 **** 0.06
5571 C 127.61752537785563 81.6614449559993 117.95944698419873 C 0.0 **** -0.24
5572 H 126.931171992369 81.02804882133707 118.52016305490594 H 0.0 **** 0.06
5573 H 128.02086776703615 82.43136308127747 118.61688760575822 H 0.0 **** 0.06
5574 H 127.08490863342172 82.13182930124448 117.1324299477547 H 0.0 **** 0.06
5575 H 128.43312512773718 81.0542090296059 117.56693232202821 H 0.0 **** 0.06
5576 C 127.98427963191025 85.92950774796977 156.0631892806154 C 0.0 **** -0.24
5577 H 127.19527804158577 86.68037317189673 156.0763325579725 H 0.0 **** 0.06
5578 H 128.58307572737206 86.04684471617053 155.16042605876308 H 0.0 **** 0.06
5579 H 127.53891121080687 84.93507246528692 156.07777027208778 H 0.0 **** 0.06
5580 H 128.61963999024468 86.0554815326107 156.94043897942237 H 0.0 **** 0.06
5581 C 120.27883709682632 59.64508972779254 59.52016816327247 C 0.0 **** -0.24
5582 H 121.33485177019884 59.89109491694923 59.41182785417922 H 0.0 **** 0.06
5583 H 119.69350239721732 60.24290911629711 58.821044088389 H 0.0 **** 0.06
5584 H 119.9583647256124 59.859847294406066 60.53996414854252 H 0.0 **** 0.06
5585 H 120.12862949427682 58.58650758351796 59.3078365619792 H 0.0 **** 0.06
5586 C 15.111667723229317 69.95279638338923 154.77374807767023 C 0.0 **** -0.24
5587 H 15.00478031184604 70.32398474855944 155.79371548107005 H 0.0 **** 0.06
5588 H 14.352181065676135 70.40985715562556 154.13978148586034 H 0.0 **** 0.06
5589 H 14.988307022474501 68.87011062210871 154.7676779053972 H 0.0 **** 0.06
5590 H 16.10203832486595 70.20840628542186 154.3965043301424 H 0.0 **** 0.06
5591 C 94.27893160853412 23.152341634847318 15.934196610904138 C 0.0 **** -0.24
5592 H 95.22133591951288 22.736630084698675 16.29093210048231 H 0.0 **** 0.06
5593 H 93.96733504160653 23.96226918971294 16.593368899355085 H 0.0 **** 0.06
5594 H 93.51772629647417 22.37289292649632 15.929162910191536 H 0.0 **** 0.06
5595 H 94.41250503897004 23.53662101410211 14.923249200644676 H 0.0 **** 0.06
5596 C 109.25337346904487 8.107494422696675 135.8086439159832 C 0.0 **** -0.24
5597 H 108.8098734535902 8.892887974350344 136.42056865572695 H 0.0 **** 0.06
5598 H 109.89116697234456 8.556947312994907 135.0474456930439 H 0.0 **** 0.06
5599 H 108.46270346662348 7.5316980231725665 135.3284714311145 H 0.0 **** 0.06
5600 H 109.84978670346325 7.448837106900214 136.44089071265736 H 0.0 **** 0.06
5601 C 25.179813333857297 54.302571413259685 163.95824011598938 C 0.0 **** -0.24
5602 H 24.778778242158502 55.02344913388757 164.66999591952853 H 0.0 **** 0.06
5603 H 26.1828822835396 54.607319121331585 163.65817224308515 H 0.0 **** 0.06
5604 H 24.53506772345643 54.26181256958007 163.08035401981004 H 0.0 **** 0.06
5605 H 25.222569220920526 53.317515793018984 164.4230374340466 H 0.0 **** 0.06
5606 C 130.97996592781845 4.17559480661744 51.517422938080216 C 0.0 **** -0.24
5607 H 131.95836433809524 3.8969958988308875 51.12641094962848 H 0.0 **** 0.06
5608 H 131.04822376794942 5.148650468717918 52.005871283270096 H 0.0 **** 0.06
5609 H 130.6506239121615 3.428796273560401 52.24029498067394 H 0.0 **** 0.06
5610 H 130.26288998929596 4.228780517719628 50.69860821772214 H 0.0 **** 0.06
5611 C 28.090986316931776 112.73076862298575 62.38966043718307 C 0.0 **** -0.24
5612 H 28.127947394004877 111.6911928111906 62.06394860553179 H 0.0 **** 0.06
5613 H 27.11407524393894 113.1512768894546 62.14912610599957 H 0.0 **** 0.06
5614 H 28.867481222579613 113.29928564217605 61.879195739988376 H 0.0 **** 0.06
5615 H 28.252845517461765 112.77899763138444 63.4666241109384 H 0.0 **** 0.06
5616 C 148.00909443043773 152.94529734835095 44.50251825171705 C 0.0 **** -0.24
5617 H 147.49759731151642 153.82046153284853 44.905270754599016 H 0.0 **** 0.06
5618 H 148.53162804393878 153.22057090327598 43.58647388947438 H 0.0 **** 0.06
5619 H 147.27931628644865 152.16547200203132 44.285217837995674 H 0.0 **** 0.06
5620 H 148.72716165114858 152.57706371935717 45.234809606501585 H 0.0 **** 0.06
5621 C 31.631613976176894 54.883151246194586 90.40152620757333 C 0.0 **** -0.24
5622 H 31.57176016458898 54.23062306897533 91.27164553212737 H 0.0 **** 0.06
5623 H 32.66229703407102 55.2102335851865 90.26392981924876 H 0.0 **** 0.06
5624 H 30.99192459686931 55.75206274691999 90.55444930183106 H 0.0 **** 0.06
5625 H 31.30127182811394 54.33988742663817 89.51664844802373 H 0.0 **** 0.06
5626 C 29.561402655165978 17.317668250227428 66.33278124088746 C 0.0 **** -0.24
5627 H 30.21063689114999 16.708738237946818 66.96096616499919 H 0.0 **** 0.06
5628 H 29.66676418465414 17.00821712482241 65.29256291918338 H 0.0 **** 0.06
5629 H 29.841750335858052 18.366618645692455 66.42937541331331 H 0.0 **** 0.06
5630 H 28.526175137385394 17.187974508113207 66.64714676614173 H 0.0 **** 0.06
5631 C 25.76625175735701 23.411168479399628 133.16859056403183 C 0.0 **** -0.24
5632 H 24.714450992613294 23.687188625596555 133.24279441652436 H 0.0 **** 0.06
5633 H 26.324691771577413 24.228739082150106 132.7118168039857 H 0.0 **** 0.06
5634 H 25.86328120356462 22.516467874390884 132.5542695759426 H 0.0 **** 0.06
5635 H 26.160462888225524 23.212370180838022 134.16477678340894 H 0.0 **** 0.06
5636 C 50.6412087381415 18.48055722589841 74.45251663068541 C 0.0 **** -0.24
5637 H 50.10950565259239 17.65172993160408 74.91947307312921 H 0.0 **** 0.06
5638 H 50.02907652002477 19.381905346476557 74.50726108025037 H 0.0 **** 0.06
5639 H 50.84349733755312 18.241003445900077 73.40887901309895 H 0.0 **** 0.06
5640 H 51.58276621406611 18.648502154976093 74.97592586049166 H 0.0 **** 0.06
5641 C 159.6429240027545 154.41858792615426 59.63612869105492 C 0.0 **** -0.24
5642 H 159.61689057307777 153.56072536651897 60.30795699526003 H 0.0 **** 0.06
5643 H 159.76611904153125 154.07190301099976 58.61000065677594 H 0.0 **** 0.06
5644 H 160.47871599361778 155.06435753388755 59.90475396210057 H 0.0 **** 0.06
5645 H 158.7106073996318 154.9753439852781 59.722514955792604 H 0.0 **** 0.06
5646 C 106.63978032850349 148.92151623889436 159.3868804503975 C 0.0 **** -0.24
5647 H 106.31516066939975 149.350063841478 158.43807686346773 H 0.0 **** 0.06
5648 H 107.16828723720155 149.67889912987863 159.96526247931243 H 0.0 **** 0.06
5649 H 107.3046882539291 148.0792411750955 159.1960052326859 H 0.0 **** 0.06
5650 H 105.769226595507 148.57772059653445 159.94575069245224 H 0.0 **** 0.06
5651 C 39.241482838204035 18.389650209781223 65.36687103509512 C 0.0 **** -0.24
5652 H 38.60926686727714 19.052903547543288 65.95750473781034 H 0.0 **** 0.06
5653 H 40.03435632364625 18.96913473214365 64.89446178878407 H 0.0 **** 0.06
5654 H 38.6405262153458 17.902766394753876 64.59977102044472 H 0.0 **** 0.06
5655 H 39.68165185007098 17.633332032489946 66.017410245952 H 0.0 **** 0.06
5656 C 7.151549876631364 147.56214274673334 138.96293867255565 C 0.0 **** -0.24
5657 H 7.593687542571068 146.5967235884099 139.20526338472655 H 0.0 **** 0.06
5658 H 6.309070987321306 147.7533228540325 139.62691355685558 H 0.0 **** 0.06
5659 H 6.804449367900922 147.55317076188365 137.9293067510598 H 0.0 **** 0.06
5660 H 7.8992939249786716 148.34538764778645 139.08784043681678 H 0.0 **** 0.06
5661 C 98.96587741231872 161.1052808335871 117.28844768261285 C 0.0 **** -0.24
5662 H 98.96003757375064 161.15129981252034 116.19857320026466 H 0.0 **** 0.06
5663 H 97.95374238323575 160.91821110423456 117.64829460370419 H 0.0 **** 0.06
5664 H 99.32485834491263 162.05287250504546 117.68969559937713 H 0.0 **** 0.06
5665 H 99.62313925209088 160.30015363188113 117.6142270546813 H 0.0 **** 0.06
5666 C 126.55642449560554 7.452940360544176 9.12041049926944 C 0.0 **** -0.24
5667 H 127.17088276667744 7.459475708299806 8.219928118747589 H 0.0 **** 0.06
5668 H 126.1176395510069 8.439571005265407 9.267539404688364 H 0.0 **** 0.06
5669 H 127.1761928046617 7.198594307118242 9.98055788706796 H 0.0 **** 0.06
5670 H 125.76269429401054 6.714024676636086 9.013367768154296 H 0.0 **** 0.06
5671 C 47.40643224177538 68.74943135430773 102.68958023326451 C 0.0 **** -0.24
5672 H 46.80467945322016 68.62794315706603 101.78829591936059 H 0.0 **** 0.06
5673 H 48.255252851626835 69.39950767101985 102.47319264003491 H 0.0 **** 0.06
5674 H 47.768856039714876 67.77583046088706 103.01880882125602 H 0.0 **** 0.06
5675 H 46.79732132429487 69.19604876908227 103.47466489418585 H 0.0 **** 0.06
5676 C 63.96846384985611 110.57802547312616 7.6934424872590625 C 0.0 **** -0.24
5677 H 63.76814502479094 110.3824700660397 6.639864941808298 H 0.0 **** 0.06
5678 H 63.11076833902058 110.26629929860508 8.289976982179866 H 0.0 **** 0.06
5679 H 64.14275742943616 111.64442062105402 7.837040273651866 H 0.0 **** 0.06
5680 H 64.85096678126227 110.01956880701377 8.004866476504816 H 0.0 **** 0.06
5681 C 97.11659641123077 147.33298561012347 154.1174414667779 C 0.0 **** -0.24
5682 H 96.67784338360877 148.32858072346468 154.19469675906393 H 0.0 **** 0.06
5683 H 98.12727988122691 147.41297494998253 153.71665870108043 H 0.0 **** 0.06
5684 H 96.50838309528507 146.7189882660429 153.4525843148326 H 0.0 **** 0.06
5685 H 97.15125334431144 146.87403424959942 155.10518622794618 H 0.0 **** 0.06
5686 C 149.03738182606415 127.07344787763418 100.56730224514283 C 0.0 **** -0.24
5687 H 148.43834464375752 127.58434904045845 99.81366729804984 H 0.0 **** 0.06
5688 H 149.96694420179688 126.72441749333899 100.11763707458724 H 0.0 **** 0.06
5689 H 148.48037866079255 126.2222898666883 100.95951610506575 H 0.0 **** 0.06
5690 H 149.26421376369913 127.76501647438027 101.38002261072026 H 0.0 **** 0.06
5691 C 96.50778413987092 136.8281049589034 2.0506183224459065 C 0.0 **** -0.24
5692 H 95.70513783713886 137.46973043371045 2.415116425076505 H 0.0 **** 0.06
5693 H 96.95569440802586 136.29611198578064 2.889903167704148 H 0.0 **** 0.06
5694 H 97.26572546347705 137.4387286949758 1.560220748821834 H 0.0 **** 0.06
5695 H 96.10333987406085 136.10945289594156 1.3386083489792497 H 0.0 **** 0.06
5696 C 71.1720874623196 5.303884147424185 48.732032709501894 C 0.0 **** -0.24
5697 H 71.02756813572444 5.155638055067499 49.80216561891811 H 0.0 **** 0.06
5698 H 72.23821276731135 5.315318634341963 48.50813041471629 H 0.0 **** 0.06
5699 H 70.72702487118663 6.252804118575284 48.433594526332286 H 0.0 **** 0.06
5700 H 70.69453954829329 4.490567849859758 48.185831493388804 H 0.0 **** 0.06
5701 C 93.45207046273848 37.44851098024935 93.8776548260658 C 0.0 **** -0.24
5702 H 94.18099116765345 36.65745383216887 93.70110912665507 H 0.0 **** 0.06
5703 H 92.44555537960437 37.054543884000964 93.72922787007437 H 0.0 **** 0.06
5704 H 93.62869779778512 38.26681370753781 93.18052171110358 H 0.0 **** 0.06
5705 H 93.55277837533458 37.81285019048221 94.9002681722481 H 0.0 **** 0.06
5706 C 55.749001879909656 73.90040322081697 13.735277854497213 C 0.0 **** -0.24
5707 H 54.681674315359544 73.8155376704564 13.937277527668726 H 0.0 **** 0.06
5708 H 56.187666217782635 74.64070495533282 14.405940352230942 H 0.0 **** 0.06
5709 H 55.90023497829321 74.21181471664015 12.701866703776346 H 0.0 **** 0.06
5710 H 56.22801009271814 72.93457819816726 13.897596544108836 H 0.0 **** 0.06
5711 C 87.01799277114628 12.437599540814517 116.73092258068456 C 0.0 **** -0.24
5712 H 86.9995939991674 11.779526568553933 117.59974111026722 H 0.0 **** 0.06
5713 H 86.43388664448288 11.991168717398125 115.92580286638395 H 0.0 **** 0.06
5714 H 88.04865456559949 12.573236968700485 116.40023694140348 H 0.0 **** 0.06
5715 H 86.59111870316781 13.403867140227106 116.99713415823538 H 0.0 **** 0.06
5716 C 34.118332931711535 105.95422111729701 54.75740508633665 C 0.0 **** -0.24
5717 H 33.28579810228268 106.24884396052235 55.39559964766178 H 0.0 **** 0.06
5718 H 34.980336792837306 106.5870416518502 54.97087575606851 H 0.0 **** 0.06
5719 H 33.83254804785821 106.07001229305473 53.711765283004354 H 0.0 **** 0.06
5720 H 34.37401596656173 104.91293023284092 54.95228620834787 H 0.0 **** 0.06
5721 C 42.31226340898496 162.53502414339275 0.19631059217871893 C 0.0 **** -0.24
5722 H 41.60871861385215 162.9752731153547 -0.5105201919361946 H 0.0 **** 0.06
5723 H 42.853853443369076 163.32848470841162 0.7119720810344461 H 0.0 **** 0.06
5724 H 43.01883791815595 161.90291120484403 -0.3411332361161783 H 0.0 **** 0.06
5725 H 41.76750945023781 161.93398312014958 0.9241031356150984 H 0.0 **** 0.06
5726 C 81.35638813727535 8.384772736223958 170.2156015904227 C 0.0 **** -0.24
5727 H 82.20156629796688 8.679316638557722 170.83847957047098 H 0.0 **** 0.06
5728 H 81.10973470073121 7.340476988408859 170.40905359548313 H 0.0 **** 0.06
5729 H 81.62100967623915 8.507330681337365 169.16490934182127 H 0.0 **** 0.06
5730 H 80.49735517398446 9.011939201024447 170.45024755573183 H 0.0 **** 0.06
5731 C 94.71505357193459 155.29332377732726 125.82266603799721 C 0.0 **** -0.24
5732 H 94.14455531564064 154.466502324832 126.24497184175829 H 0.0 **** 0.06
5733 H 94.11030374602211 155.80676750596325 125.0751639505718 H 0.0 **** 0.06
5734 H 95.62146672938826 154.90815986428458 125.35512871866749 H 0.0 **** 0.06
5735 H 94.9839902318096 155.9910072391335 126.61489643784941 H 0.0 **** 0.06
5736 C 39.11966928797739 33.59735108356264 102.28761477546391 C 0.0 **** -0.24
5737 H 40.16803213216741 33.43339940056785 102.04043599812431 H 0.0 **** 0.06
5738 H 38.551611839839495 33.76295715205708 101.37154240700775 H 0.0 **** 0.06
5739 H 39.03156380558164 34.471171912047396 102.93306714705753 H 0.0 **** 0.06
5740 H 38.72746937432112 32.721875869578554 102.8054135496663 H 0.0 **** 0.06
5741 C 103.77438312853988 106.4703438665837 26.029462874248374 C 0.0 **** -0.24
5742 H 104.5037794456048 105.93230534126928 26.63550145558856 H 0.0 **** 0.06
5743 H 103.86511661427843 107.54044942194332 26.216878803683976 H 0.0 **** 0.06
5744 H 102.77014872657185 106.13860054865728 26.291441491651113 H 0.0 **** 0.06
5745 H 103.96089533141372 106.26805255865827 24.974606192458644 H 0.0 **** 0.06
5746 C 103.15839945221444 146.2082032029855 103.73756260206699 C 0.0 **** -0.24
5747 H 102.14391282501865 146.27416103136295 103.34325731616713 H 0.0 **** 0.06
5748 H 103.30386991236719 145.23245987210697 104.20313916444746 H 0.0 **** 0.06
5749 H 103.31024843133562 146.99143134951555 104.48081744814351 H 0.0 **** 0.06
5750 H 103.87278823560592 146.33453022618698 102.92483306580948 H 0.0 **** 0.06
5751 C 42.704269624903276 92.65699399790486 137.62415280599697 C 0.0 **** -0.24
5752 H 42.78071691574381 93.18837311775047 138.57317875339885 H 0.0 **** 0.06
5753 H 43.58700669725147 92.86695257327261 137.01905291302234 H 0.0 **** 0.06
5754 H 41.81203642064145 92.9878449427726 137.09269467653178 H 0.0 **** 0.06
5755 H 42.639183474708034 91.58551709575187 137.81269250755915 H 0.0 **** 0.06
5756 C 30.099547578723218 21.026835026302102 106.87486659613069 C 0.0 **** -0.24
5757 H 31.045359455060805 20.50367896231939 107.01519053516361 H 0.0 **** 0.06
5758 H 29.61125353258589 20.65805381664522 105.97234869983288 H 0.0 **** 0.06
5759 H 30.286582521318167 22.095499580175208 106.77573460499389 H 0.0 **** 0.06
5760 H 29.45477544972124 20.848404135922593 107.73516799240929 H 0.0 **** 0.06
5761 C 123.72091309497196 8.375799321744694 84.43142979456422 C 0.0 **** -0.24
5762 H 122.87487227731856 8.764658491740818 83.86435336328498 H 0.0 **** 0.06
5763 H 123.64357191370362 7.29042323599424 84.5001196556774 H 0.0 **** 0.06
5764 H 123.7138551616602 8.805405345108909 85.43278787920997 H 0.0 **** 0.06
5765 H 124.64975732132444 8.643805226711436 83.92733809712718 H 0.0 **** 0.06
5766 C 84.7808233821978 85.46994259314138 120.96966399692036 C 0.0 **** -0.24
5767 H 84.88216583280536 84.38640570360765 120.91243911047854 H 0.0 **** 0.06
5768 H 85.10261983440066 85.91484038724133 120.02789747076054 H 0.0 **** 0.06
5769 H 85.40090947728072 85.85050325991027 121.78201307859703 H 0.0 **** 0.06
5770 H 83.7390015611202 85.72819456627717 121.15627418745828 H 0.0 **** 0.06
5771 C 7.82155047556779 54.09821316073034 166.98125479051723 C 0.0 **** -0.24
5772 H 7.132764591806563 53.91208764466518 166.15682256049092 H 0.0 **** 0.06
5773 H 8.354965931217265 55.03248839879542 166.80505057393006 H 0.0 **** 0.06
5774 H 8.536479852710727 53.27889530864003 167.0487336466742 H 0.0 **** 0.06
5775 H 7.261314831312177 54.17001320736807 167.91403450138722 H 0.0 **** 0.06
5776 C 100.23344115479725 65.26522075016476 138.46376652300518 C 0.0 **** -0.24
5777 H 99.36061531662216 64.61879978643026 138.55824505541332 H 0.0 **** 0.06
5778 H 100.16843656043724 66.07208054089017 139.19394655180878 H 0.0 **** 0.06
5779 H 100.26654704700701 65.68572739746867 137.4582570159606 H 0.0 **** 0.06
5780 H 101.13744517690509 64.68362439309192 138.64437823455998 H 0.0 **** 0.06
5781 C 15.546503857669329 37.56177431278235 14.40707557141053 C 0.0 **** -0.24
5782 H 16.31405121845065 37.36549280334958 13.658760938492591 H 0.0 **** 0.06
5783 H 14.688779116079587 36.91398538736371 14.225402879282228 H 0.0 **** 0.06
5784 H 15.234927360932197 38.6040341413493 14.341488149937653 H 0.0 **** 0.06
5785 H 15.948454739014139 37.36363508145433 15.400209244225557 H 0.0 **** 0.06
5786 C 1.2926555098239305 22.30528312892784 156.70408408812222 C 0.0 **** -0.24
5787 H 1.443263570040898 23.383858097750192 156.73795749005194 H 0.0 **** 0.06
5788 H 2.233658382480087 21.799682585257074 156.92116903202503 H 0.0 **** 0.06
5789 H 0.946356922575319 22.018203071890866 155.71120115656174 H 0.0 **** 0.06
5790 H 0.5464669099125956 22.018963801971978 157.44578148155313 H 0.0 **** 0.06
5791 C 6.08911207754943 96.70845918550643 13.058443872219655 C 0.0 **** -0.24
5792 H 7.010687950923199 97.26554327020023 13.22616211226648 H 0.0 **** 0.06
5793 H 5.240074538720336 97.30119444001005 13.397286505823438 H 0.0 **** 0.06
5794 H 6.124773875802333 95.77178199296532 13.61625952760177 H 0.0 **** 0.06
5795 H 5.98340053912159 96.49403224103733 11.995142724063712 H 0.0 **** 0.06
5796 C 76.11985423795272 43.82191555715528 71.33197145460355 C 0.0 **** -0.24
5797 H 75.7450625527282 44.716604716678674 70.83448005283941 H 0.0 **** 0.06
5798 H 75.71445729300046 42.936235619235276 70.84201373189103 H 0.0 **** 0.06
5799 H 75.81213389091155 43.833370566187654 72.37730352631718 H 0.0 **** 0.06
5800 H 77.2084312355841 43.8037073387209 71.27340709320057 H 0.0 **** 0.06
5801 C 168.66414777561727 108.88259143443571 163.42741495947624 C 0.0 **** -0.24
5802 H 167.91534019582394 108.9774412414252 162.64147928267292 H 0.0 **** 0.06
5803 H 168.49341208831908 109.64794417083729 164.18538510148795 H 0.0 **** 0.06
5804 H 169.65832420913472 109.00902811309649 162.99985543778953 H 0.0 **** 0.06
5805 H 168.58684514558212 107.89528231545421 163.884133939541 H 0.0 **** 0.06
5806 C 40.59757566241866 150.3982052492284 38.10048543428593 C 0.0 **** -0.24
5807 H 39.61008019222504 150.18440480418934 38.51135681919823 H 0.0 **** 0.06
5808 H 41.34771438383595 150.285549768269 38.88331864113292 H 0.0 **** 0.06
5809 H 40.618018389324746 151.4201987831661 37.72097190443867 H 0.0 **** 0.06
5810 H 40.810561474855874 149.70427386276145 37.28802347902263 H 0.0 **** 0.06
5811 C 11.218036708562778 161.9704565897145 149.83868260452863 C 0.0 **** -0.24
5812 H 11.347373538197758 163.0044229866643 150.1592768547257 H 0.0 **** 0.06
5813 H 12.160520738689144 161.59168041809662 149.4432883085671 H 0.0 **** 0.06
5814 H 10.453387649711289 161.92475749815065 149.06303732270342 H 0.0 **** 0.06
5815 H 10.909618086195877 161.36341000733944 150.68981337226643 H 0.0 **** 0.06
5816 C 90.4848962317046 65.27898473679213 133.51364006542588 C 0.0 **** -0.24
5817 H 89.68507455674433 64.56016681449228 133.33322307084939 H 0.0 **** 0.06
5818 H 90.20027323040848 65.93921841175283 134.33376168210418 H 0.0 **** 0.06
5819 H 90.65209999407081 65.86948269453045 132.61296185309027 H 0.0 **** 0.06
5820 H 91.3997572899214 64.74708324510672 133.77519357398955 H 0.0 **** 0.06
5821 C 135.5265582040233 166.75903995538692 110.33562523977207 C 0.0 **** -0.24
5822 H 135.34142342195804 167.80513632616456 110.09185756739566 H 0.0 **** 0.06
5823 H 136.19363840744407 166.3248734937159 109.59061404324362 H 0.0 **** 0.06
5824 H 134.58210668895572 166.21524385420227 110.33883618475033 H 0.0 **** 0.06
5825 H 135.98788216717708 166.6925174118617 111.3211125032083 H 0.0 **** 0.06
5826 C 103.53293841722046 78.26487739347101 124.21442997211673 C 0.0 **** -0.24
5827 H 103.11605324991984 78.76027126060956 123.33801977342017 H 0.0 **** 0.06
5828 H 103.43076454823773 78.91713205307113 125.08336416024923 H 0.0 **** 0.06
5829 H 104.58794326956587 78.05050458345818 124.04290663989565 H 0.0 **** 0.06
5830 H 102.99744477807116 77.33305846536078 124.39424991636687 H 0.0 **** 0.06
5831 C 9.275949981117378 90.14240199198105 101.23225490289673 C 0.0 **** -0.24
5832 H 8.697583652623848 89.76840892860713 100.38721480093108 H 0.0 **** 0.06
5833 H 10.25313920354867 89.65745832807438 101.24589717354633 H 0.0 **** 0.06
5834 H 8.74826810646806 89.92176727976188 102.16000181918281 H 0.0 **** 0.06
5835 H 9.405961462865662 91.21926075844303 101.13534599854665 H 0.0 **** 0.06
5836 C 49.955806140655454 142.81443958389022 38.64705324974767 C 0.0 **** -0.24
5837 H 50.80112055193035 142.1760383716663 38.39043949436841 H 0.0 **** 0.06
5838 H 50.30214133760839 143.6463985001994 39.262342246931894 H 0.0 **** 0.06
5839 H 49.21780705156016 142.2350241389529 39.202083231495706 H 0.0 **** 0.06
5840 H 49.502723271347634 143.20144459414593 37.73451491538742 H 0.0 **** 0.06
5841 C 28.115421236312812 85.34914446888564 9.556224782703772 C 0.0 **** -0.24
5842 H 27.73413908948045 84.45043681906418 9.072259239981783 H 0.0 **** 0.06
5843 H 28.191945086114117 85.17917684132482 10.630638259504309 H 0.0 **** 0.06
5844 H 27.434674496956546 86.17975421164766 9.368348409172434 H 0.0 **** 0.06
5845 H 29.10019284073759 85.58972452946409 9.155115921082682 H 0.0 **** 0.06
5846 C 131.48940882172425 169.86494342024247 125.29412184429168 C 0.0 **** -0.24
5847 H 130.61303730478116 170.50880997506795 125.20676585941436 H 0.0 **** 0.06
5848 H 131.31069136150313 169.11127488216897 126.06073189929447 H 0.0 **** 0.06
5849 H 132.3552815835002 170.4666880896546 125.56993680542377 H 0.0 **** 0.06
5850 H 131.67673385912116 169.37598284567287 124.33832423952538 H 0.0 **** 0.06
5851 C 160.70060718918427 131.20793719790913 67.93293847532216 C 0.0 **** -0.24
5852 H 160.58607019067017 130.15575491850885 68.19322852093964 H 0.0 **** 0.06
5853 H 161.74642129910433 131.41308952475904 67.7000251651292 H 0.0 **** 0.06
5854 H 160.38802939282112 131.8262474903926 68.77415525834444 H 0.0 **** 0.06
5855 H 160.0831966526215 131.4361351323769 67.06408629050166 H 0.0 **** 0.06
5856 C 33.978914525165635 32.54176251290954 92.38300507145135 C 0.0 **** -0.24
5857 H 34.193775942107095 33.17750393451641 91.52330766075124 H 0.0 **** 0.06
5858 H 34.74159771634021 31.76723701644599 92.46119572755629 H 0.0 **** 0.06
5859 H 33.00063348910942 32.078775899991 92.25716481043315 H 0.0 **** 0.06
5860 H 33.98090803474332 33.14690988348377 93.29048670558512 H 0.0 **** 0.06
5861 C 140.90918498344314 121.05074807163055 162.84152487204045 C 0.0 **** -0.24
5862 H 141.4177837920182 120.40320439565738 163.55544406386463 H 0.0 **** 0.06
5863 H 139.8385379185388 120.84809179579625 162.86609064629374 H 0.0 **** 0.06
5864 H 141.29250852534256 120.85814105090162 161.83899766017137 H 0.0 **** 0.06
5865 H 141.08878403076426 122.09337659188577 163.1051157590943 H 0.0 **** 0.06
5866 C 8.091802888604775 89.73394673306683 42.961560797021406 C 0.0 **** -0.24
5867 H 7.904223760605504 89.4235591076943 43.98932379011484 H 0.0 **** 0.06
5868 H 8.403808079990313 88.87147356963709 42.37232824844466 H 0.0 **** 0.06
5869 H 8.87814793743334 90.48878392764533 42.94757992552081 H 0.0 **** 0.06
5870 H 7.178665184036134 90.15259507955409 42.53691586766982 H 0.0 **** 0.06
5871 C 45.768976802159784 84.95282874915041 41.145340087401934 C 0.0 **** -0.24
5872 H 45.68859432698312 84.79708368085174 40.069671780068575 H 0.0 **** 0.06
5873 H 44.78828693004769 84.82860354056677 41.60447585617956 H 0.0 **** 0.06
5874 H 46.136899342738616 85.96064663349003 41.339914813617 H 0.0 **** 0.06
5875 H 46.463622086765014 84.22499520639322 41.56596994651419 H 0.0 **** 0.06
5876 C 39.5329474654435 169.12321494310999 44.078984918817426 C 0.0 **** -0.24
5877 H 39.908789299197565 170.14636796617785 44.06134969834261 H 0.0 **** 0.06
5878 H 40.37122692888687 168.42761342989604 44.03355061497409 H 0.0 **** 0.06
5879 H 38.8783502629621 168.96117711559225 43.22254961263103 H 0.0 **** 0.06
5880 H 38.97358582561213 168.958013149185 44.999859563138784 H 0.0 **** 0.06
5881 C 153.00308187800448 35.524268152992164 142.30062451924582 C 0.0 **** -0.24
5882 H 153.95283187313197 35.569366496790195 142.83372795715425 H 0.0 **** 0.06
5883 H 152.36040438122166 34.77566954123404 142.76620479931165 H 0.0 **** 0.06
5884 H 153.18313127840742 35.25244549529708 141.26049575646132 H 0.0 **** 0.06
5885 H 152.51594004941626 36.49860032783137 142.34220389035266 H 0.0 **** 0.06
5886 C 159.5330807629549 43.91349039776614 66.42148276086238 C 0.0 **** -0.24
5887 H 160.27404848673535 44.65786016802619 66.71384157493173 H 0.0 **** 0.06
5888 H 158.86310246924728 44.341535232299805 65.67530924753177 H 0.0 **** 0.06
5889 H 158.95752119198352 43.610926231679 67.29618744568253 H 0.0 **** 0.06
5890 H 160.03825602152733 43.04441936460596 66.00075521768504 H 0.0 **** 0.06
5891 C 70.38614419463883 114.32702882461061 159.0655836754148 C 0.0 **** -0.24
5892 H 70.37662648810877 115.41650403911567 159.0990554107619 H 0.0 **** 0.06
5893 H 70.88085830800303 113.99602097173644 158.15207672307992 H 0.0 **** 0.06
5894 H 69.36249985337207 113.95431083684403 159.08070711011555 H 0.0 **** 0.06
5895 H 70.9261638732867 113.94232864403466 159.93115038158538 H 0.0 **** 0.06
5896 C 89.69262899912107 148.266875494747 142.73615001692264 C 0.0 **** -0.24
5897 H 88.97108645535909 147.6816243467336 142.1655076989169 H 0.0 **** 0.06
5898 H 89.40872152274804 148.26699283975609 143.78875807771593 H 0.0 **** 0.06
5899 H 89.70451620767491 149.29108828354708 142.3624749419615 H 0.0 **** 0.06
5900 H 90.68429790959829 147.82888581741054 142.626751778204 H 0.0 **** 0.06
5901 C 0.8649058285190847 73.95949828517169 4.338047320290229 C 0.0 **** -0.24
5902 H 1.7299041734189018 74.53974908763351 4.659963562333303 H 0.0 **** 0.06
5903 H 1.0623651008025945 72.89787447210469 4.489928616993097 H 0.0 **** 0.06
5904 H 0.6752158267020718 74.1469985943994 3.2811677040963048 H 0.0 **** 0.06
5905 H -0.007601686683841535 74.25475723472655 4.921025861464869 H 0.0 **** 0.06
5906 C 151.69804337706557 108.47266989868197 77.61707798185864 C 0.0 **** -0.24
5907 H 150.86621510913795 108.7222740340942 76.95817381473279 H 0.0 **** 0.06
5908 H 151.31113018139183 108.12016737257863 78.57319321210315 H 0.0 **** 0.06
5909 H 152.31365303948908 109.35791275489959 77.77724670271334 H 0.0 **** 0.06
5910 H 152.30164237893194 107.68867427491813 77.15795017969788 H 0.0 **** 0.06
5911 C 146.06148079421945 140.32616860855862 151.95101944846544 C 0.0 **** -0.24
5912 H 145.30470669734518 139.63772311670712 152.32540684212333 H 0.0 **** 0.06
5913 H 145.67857015768033 141.34623811814674 151.9953461184713 H 0.0 **** 0.06
5914 H 146.3044125956435 140.07295786099235 150.91989404713212 H 0.0 **** 0.06
5915 H 146.95877229019072 140.24777987067472 152.56560092130678 H 0.0 **** 0.06
5916 C 88.11007849403481 22.452324731043888 139.205377561544 C 0.0 **** -0.24
5917 H 88.93826353621202 22.98938397134799 139.66949838506844 H 0.0 **** 0.06
5918 H 88.04962931369606 21.447682789112207 139.62237949816688 H 0.0 **** 0.06
5919 H 88.27580132496416 22.390701881542554 138.12982340109107 H 0.0 **** 0.06
5920 H 87.17839304190204 22.984823865306424 139.39971775417047 H 0.0 **** 0.06
5921 C 129.2708688527364 26.12062459927705 73.82629841073265 C 0.0 **** -0.24
5922 H 129.07240126554333 25.05033457768949 73.88034527895076 H 0.0 **** 0.06
5923 H 129.13431084055793 26.566029951045806 74.8125626821098 H 0.0 **** 0.06
5924 H 128.5811329973784 26.583862441495327 73.12034702936127 H 0.0 **** 0.06
5925 H 130.29578808059102 26.283850650640538 73.49263236984534 H 0.0 **** 0.06
5926 C 8.266274053768036 138.97569759381938 153.96014432138458 C 0.0 **** -0.24
5927 H 8.55914560239902 139.79752418941206 153.30664184121525 H 0.0 **** 0.06
5928 H 8.884182916953193 138.10327424829978 153.7456650653558 H 0.0 **** 0.06
5929 H 7.218531713137963 138.7315994398991 153.7875110762598 H 0.0 **** 0.06
5930 H 8.40314660866639 139.27271401238625 154.99998293340056 H 0.0 **** 0.06
5931 C 65.41047167119075 25.523351467730294 139.27485302199858 C 0.0 **** -0.24
5932 H 65.7388701749797 26.426043116449023 139.78905956341256 H 0.0 **** 0.06
5933 H 65.68698360377357 24.6480081920226 139.8634781280606 H 0.0 **** 0.06
5934 H 65.88851113584406 25.46875873492685 138.29652224787304 H 0.0 **** 0.06
5935 H 64.3283402991488 25.55009502643272 139.15007065885447 H 0.0 **** 0.06
5936 C 59.872742412373384 109.963240299479 88.90457959007176 C 0.0 **** -0.24
5937 H 59.419772892263026 109.38817379308486 89.7119179951053 H 0.0 **** 0.06
5938 H 59.452042241955695 110.96945899010214 88.89549451311018 H 0.0 **** 0.06
5939 H 59.66678736789622 109.47497114588563 87.95190023832095 H 0.0 **** 0.06
5940 H 60.95020097404054 110.02085771038037 89.05876604956802 H 0.0 **** 0.06
5941 C 167.9177166105564 85.51476861269744 158.13860535208732 C 0.0 **** -0.24
5942 H 168.31982030344705 85.1122252772416 157.2098456315117 H 0.0 **** 0.06
5943 H 168.55115368890927 86.33089026266939 158.48527102342558 H 0.0 **** 0.06
5944 H 167.89077439541967 84.7288648634163 158.8930532189654 H 0.0 **** 0.06
5945 H 166.90719276682304 85.8874750822914 157.96586657764192 H 0.0 **** 0.06
5946 C 77.63381578788466 59.1635173844584 54.13124844832825 C 0.0 **** -0.24
5947 H 78.22515167180245 58.365038847360296 53.68418798769831 H 0.0 **** 0.06
5948 H 76.57841471643087 58.89166855296253 54.10599008675182 H 0.0 **** 0.06
5949 H 77.78579963914211 60.08618574599994 53.56889423613511 H 0.0 **** 0.06
5950 H 77.94653998686147 59.31252843940082 55.16505040417148 H 0.0 **** 0.06
5951 C 42.481652614360655 120.66549991609878 93.40030614674137 C 0.0 **** -0.24
5952 H 43.23960130643667 121.38105611523682 93.72021912238756 H 0.0 **** 0.06
5953 H 42.42644125899295 120.65702154498854 92.31191972759456 H 0.0 **** 0.06
5954 H 41.51434897633851 120.9520834608337 93.81167058217545 H 0.0 **** 0.06
5955 H 42.748814080871654 119.67081146550902 93.75851537302376 H 0.0 **** 0.06
5956 C 33.65297978255532 130.82462503298248 125.28452831788064 C 0.0 **** -0.24
5957 H 32.59326131392248 131.0261100387433 125.44190605488416 H 0.0 **** 0.06
5958 H 33.78491781312965 129.78406416239164 124.98814914644018 H 0.0 **** 0.06
5959 H 34.19993042158694 131.01150955575594 126.20884069359252 H 0.0 **** 0.06
5960 H 34.033589211966586 131.47816898679253 124.49956656787185 H 0.0 **** 0.06
5961 C 117.9389314905205 122.42723004888592 39.9751091960174 C 0.0 **** -0.24
5962 H 117.04014939696236 122.54280591863534 39.368708195339195 H 0.0 **** 0.06
5963 H 117.9109428615503 121.46477740638548 40.485917115294 H 0.0 **** 0.06
5964 H 117.98642781062142 123.22833971437188 40.71179199766357 H 0.0 **** 0.06
5965 H 118.81796979291741 122.47159395190113 39.33229453685573 H 0.0 **** 0.06
5966 C 59.35698260330449 73.2958676787797 65.47358646394787 C 0.0 **** -0.24
5967 H 60.035053350544885 74.05141895926567 65.07633526015957 H 0.0 **** 0.06
5968 H 58.331710449192855 73.66177469488014 65.41463510278294 H 0.0 **** 0.06
5969 H 59.61131856723448 73.08959105158499 66.51321397148001 H 0.0 **** 0.06
5970 H 59.45037780881778 72.38066458262148 64.88777006572388 H 0.0 **** 0.06
5971 C 85.1383037810758 136.37303199561111 22.024794939457216 C 0.0 **** -0.24
5972 H 84.28479437010388 135.7009080631851 21.94721763582136 H 0.0 **** 0.06
5973 H 86.05208838002531 135.78849643904638 22.13866380299408 H 0.0 **** 0.06
5974 H 85.01158794319625 137.02251623611937 22.890374210914025 H 0.0 **** 0.06
5975 H 85.2059825892918 136.9805746706541 21.1223478984367 H 0.0 **** 0.06
5976 C 119.10555723412477 113.52263566587146 67.37154051374847 C 0.0 **** -0.24
5977 H 119.20332864680901 114.42581184533091 66.76957979085341 H 0.0 **** 0.06
5978 H 119.71362355547862 113.61894163225105 68.27166701967266 H 0.0 **** 0.06
5979 H 119.4429895986296 112.662440695897 66.7945455749526 H 0.0 **** 0.06
5980 H 118.06136942616794 113.38496258822539 67.65161571768095 H 0.0 **** 0.06
5981 C 38.916498971959356 145.2329649085855 130.78059282139847 C 0.0 **** -0.24
5982 H 39.37616897390632 146.20738978468967 130.6175443159689 H 0.0 **** 0.06
5983 H 39.69401628786301 144.49144024895608 130.96818341013156 H 0.0 **** 0.06
5984 H 38.34672758182052 144.9472781870715 129.89722381407307 H 0.0 **** 0.06
5985 H 38.24906761218966 145.28518466596506 131.6415827753787 H 0.0 **** 0.06
5986 C 60.17136471375531 122.45681765633213 97.52587825885189 C 0.0 **** -0.24
5987 H 60.70286660325202 123.31082756826922 97.10750048424035 H 0.0 **** 0.06
5988 H 59.84613506212479 121.8009762354786 96.71690548311261 H 0.0 **** 0.06
5989 H 59.301613022066434 122.80612160941757 98.08297874246597 H 0.0 **** 0.06
5990 H 60.834506671814566 121.9074053764231 98.19386483595969 H 0.0 **** 0.06
5991 C 136.89418125463584 2.89058311118864 99.60009350795923 C 0.0 **** -0.24
5992 H 137.17842987315078 2.0578341714201756 100.24433503493361 H 0.0 **** 0.06
5993 H 136.992696079032 2.591497307216315 98.55672219951708 H 0.0 **** 0.06
5994 H 137.54638550656927 3.741063601777732 99.79761495673023 H 0.0 **** 0.06
5995 H 135.86037012577566 3.169602538434745 99.80280237078728 H 0.0 **** 0.06
5996 C 83.60122720184329 166.3690489169076 1.7498128522005842 C 0.0 **** -0.24
5997 H 84.3567526846201 166.72003332141117 2.4538088891588217 H 0.0 **** 0.06
5998 H 82.69090168947551 166.1146555638654 2.292515039203465 H 0.0 **** 0.06
5999 H 83.97246623040222 165.48682603886775 1.2283125530290349 H 0.0 **** 0.06
6000 H 83.38656851210793 167.15567228054908 1.026816655068032 H 0.0 **** 0.06
6001 C 53.5306614671039 42.44944284368256 76.70423128409337 C 0.0 **** -0.24
6002 H 52.45302729036598 42.43712467864043 76.53849941743029 H 0.0 **** 0.06
6003 H 53.76793219085812 41.86697098081703 77.5952488799935 H 0.0 **** 0.06
6004 H 53.86494906619134 43.47780055302849 76.84173550139171 H 0.0 **** 0.06
6005 H 54.03550979686915 42.01534137534105 75.84098492555836 H 0.0 **** 0.06
6006 C 9.546952278393917 108.65321105307291 172.31693503894002 C 0.0 **** -0.24
6007 H 9.669787618283635 107.82332268100907 171.62094225364282 H 0.0 **** 0.06
6008 H 10.031264617999113 108.40797931060047 173.26242282328147 H 0.0 **** 0.06
6009 H 8.485027291548647 108.83016732701446 172.487360925437 H 0.0 **** 0.06
6010 H 10.002757419240226 109.55020782267684 171.8977767721776 H 0.0 **** 0.06
6011 C 78.87451295780909 19.390323433052572 37.40368441256169 C 0.0 **** -0.24
6012 H 78.906110172831 19.97763747248166 36.48584617660049 H 0.0 **** 0.06
6013 H 77.87504676718297 18.974661215682772 37.5348768768157 H 0.0 **** 0.06
6014 H 79.11557844807496 20.029965146370955 38.252328080295285 H 0.0 **** 0.06
6015 H 79.59991587760769 18.58003335669366 37.341864195916 H 0.0 **** 0.06
6016 C 97.55316384950453 101.61064894364006 109.11759603584457 C 0.0 **** -0.24
6017 H 96.4787950930434 101.7920730872221 109.15326465140981 H 0.0 **** 0.06
6018 H 97.74755082196097 100.68280117627273 108.580603129812 H 0.0 **** 0.06
6019 H 97.94099317284608 101.53103623525743 110.13320443510463 H 0.0 **** 0.06
6020 H 98.04378598797229 102.43821831203718 108.60445564095377 H 0.0 **** 0.06
6021 C 93.48524693563127 133.89226099709316 56.52726785577693 C 0.0 **** -0.24
6022 H 94.4133617345274 133.83749697815887 55.95731343724084 H 0.0 **** 0.06
6023 H 93.63482702239179 134.5228022912866 57.40447233391002 H 0.0 **** 0.06
6024 H 93.1947310210509 132.89130838687237 56.844407456630364 H 0.0 **** 0.06
6025 H 92.70027396401255 134.31848940699427 55.90303557116847 H 0.0 **** 0.06
6026 C 3.0672117694093686 131.37001784051415 110.1054856730608 C 0.0 **** -0.24
6027 H 4.14211142425728 131.2045662349486 110.03368958226599 H 0.0 **** 0.06
6028 H 2.5794399572795896 130.98662842582164 109.20940230939675 H 0.0 **** 0.06
6029 H 2.8699216513807073 132.43772148743673 110.1995532403634 H 0.0 **** 0.06
6030 H 2.6789547776664904 130.85031634184335 110.98170542825653 H 0.0 **** 0.06
6031 C 156.58188677537586 25.57462692520747 152.6070677568444 C 0.0 **** -0.24
6032 H 155.51753170129808 25.681843989731306 152.39679180661113 H 0.0 **** 0.06
6033 H 156.87519726452834 26.294092150297843 153.37163687428279 H 0.0 **** 0.06
6034 H 157.15109828588842 25.759206753634828 151.69514683260087 H 0.0 **** 0.06
6035 H 156.7825402675328 24.564447242351207 152.96215835579596 H 0.0 **** 0.06
6036 C 103.04777857126237 54.20672934483389 51.29226331134508 C 0.0 **** -0.24
6037 H 103.23795032580972 54.75393426424927 50.36877066150545 H 0.0 **** 0.06
6038 H 103.74758573162887 53.3759023380085 51.37347024473459 H 0.0 **** 0.06
6039 H 102.02686169282401 53.8231099544289 51.283538920732965 H 0.0 **** 0.06
6040 H 103.17665057809074 54.87518475988335 52.143781696786405 H 0.0 **** 0.06
6041 C 74.05299808700053 82.73383437439566 22.460353153701817 C 0.0 **** -0.24
6042 H 74.30437456932349 82.35894819918246 23.452784723174545 H 0.0 **** 0.06
6043 H 74.944736299508 82.72540528191627 21.832295719170588 H 0.0 **** 0.06
6044 H 73.67432352123417 83.75239044820682 22.54166898798934 H 0.0 **** 0.06
6045 H 73.28846555390743 82.0967550579191 22.01544513900285 H 0.0 **** 0.06
6046 C 22.123886618862855 9.596109358424343 35.513186085020834 C 0.0 **** -0.24
6047 H 22.014549821070744 10.235395213033343 34.63686350790499 H 0.0 **** 0.06
6048 H 21.139542671078118 9.377492272525018 35.927143506507264 H 0.0 **** 0.06
6049 H 22.728578539724026 10.107094740275784 36.26223868532031 H 0.0 **** 0.06
6050 H 22.61166651113257 8.664861816203086 35.22532678891179 H 0.0 **** 0.06
6051 C 140.10664401874945 115.92731065649824 139.3410512374143 C 0.0 **** -0.24
6052 H 141.0964877538721 115.91754500255627 139.79863973132598 H 0.0 **** 0.06
6053 H 139.80966088437248 116.95716065607326 139.1416341017655 H 0.0 **** 0.06
6054 H 139.3889451939702 115.46655748308208 140.01871048316366 H 0.0 **** 0.06
6055 H 140.1341195125164 115.36854038660462 138.40607527975766 H 0.0 **** 0.06
6056 C 19.488427398181727 36.695855780877054 30.02802993064074 C 0.0 **** -0.24
6057 H 20.189801133987572 37.202336668731505 29.366162018064557 H 0.0 **** 0.06
6058 H 18.556308892674622 37.259411983037694 30.070769705048065 H 0.0 **** 0.06
6059 H 19.91797757207388 36.62600387645094 31.02733445968795 H 0.0 **** 0.06
6060 H 19.29033379644102 35.6933434257362 29.648132442504874 H 0.0 **** 0.06
6061 C 37.27463080263851 124.54559631954825 44.28545893596504 C 0.0 **** -0.24
6062 H 38.04229790607974 125.31727023539042 44.22216762232961 H 0.0 **** 0.06
6063 H 36.98689049463667 124.23683782767813 43.280809307704544 H 0.0 **** 0.06
6064 H 36.40428852841785 124.94277434606838 44.80815017918644 H 0.0 **** 0.06
6065 H 37.66597848264075 123.68769294338725 44.83253478542582 H 0.0 **** 0.06
6066 C 169.94089198185137 138.40742426283254 138.51655167102655 C 0.0 **** -0.24
6067 H 169.44397007463843 138.90883152579045 137.68521684216984 H 0.0 **** 0.06
6068 H 170.34906549867625 137.4561222761609 138.17398325659445 H 0.0 **** 0.06
6069 H 169.22166657565555 138.22808376738374 139.31545277586025 H 0.0 **** 0.06
6070 H 170.74850600733612 139.03701731696094 138.88843246390456 H 0.0 **** 0.06
6071 C 37.53904767130284 85.52827912947028 19.808518157731584 C 0.0 **** -0.24
6072 H 36.52688315621663 85.16566190757543 19.62772561027964 H 0.0 **** 0.06
6073 H 37.97061555322546 84.99290042116097 20.653712787846445 H 0.0 **** 0.06
6074 H 37.507118796415355 86.59492481751617 20.030325966236546 H 0.0 **** 0.06
6075 H 38.14868131190107 85.3598797238876 18.920417562577285 H 0.0 **** 0.06
6076 C 158.2895816644977 69.43288916623503 59.79225553574375 C 0.0 **** -0.24
6077 H 158.67821704310555 70.43210850516267 59.59700844577914 H 0.0 **** 0.06
6078 H 159.08999321053878 68.70244639868375 59.67165319992054 H 0.0 **** 0.06
6079 H 157.48638422149727 69.21209308857114 59.0896196912925 H 0.0 **** 0.06
6080 H 157.90438833111577 69.38550296399991 60.81120590277288 H 0.0 **** 0.06
6081 C 58.68989095364749 39.82803767127268 97.71241994649927 C 0.0 **** -0.24
6082 H 58.96391027454159 39.255501247724794 96.82599811960733 H 0.0 **** 0.06
6083 H 59.44862802396712 39.68957324546014 98.48281455524227 H 0.0 **** 0.06
6084 H 57.72547355489358 39.48104157679208 98.0838536373318 H 0.0 **** 0.06
6085 H 58.62189076167138 40.88485726239418 97.45514286042282 H 0.0 **** 0.06
6086 C 90.29709444246478 120.08938049285248 9.063428939825798 C 0.0 **** -0.24
6087 H 90.36800520306622 119.06825089202712 8.688647416858885 H 0.0 **** 0.06
6088 H 89.48565652672544 120.15578463098865 9.787141688382604 H 0.0 **** 0.06
6089 H 90.10188190884872 120.7677441418341 8.233513894825478 H 0.0 **** 0.06
6090 H 91.23641939825237 120.36469730888629 9.544645635181553 H 0.0 **** 0.06
6091 C 123.2941240276896 111.2487007584599 117.31562485409415 C 0.0 **** -0.24
6092 H 123.46362790927623 110.42165244355277 118.00661672295124 H 0.0 **** 0.06
6093 H 124.06951013411003 112.0029803067898 117.45569976575607 H 0.0 **** 0.06
6094 H 122.31781401555278 111.69019341148851 117.51207877520869 H 0.0 **** 0.06
6095 H 123.32703268513035 110.87795579914297 116.29137519360646 H 0.0 **** 0.06
6096 C 162.29201272506506 51.3401225185268 159.40877397902483 C 0.0 **** -0.24
6097 H 162.45457525948797 52.07826669853647 160.1943736141126 H 0.0 **** 0.06
6098 H 161.35321358439901 51.55553848599007 158.89863055170292 H 0.0 **** 0.06
6099 H 162.2460735053147 50.344919416550624 159.85097931418127 H 0.0 **** 0.06
6100 H 163.11372784474048 51.383208506402696 158.6945338094262 H 0.0 **** 0.06
6101 C 35.361713245659786 149.5528955093713 60.564877633476186 C 0.0 **** -0.24
6102 H 35.887802009108896 150.0280699528729 61.39247115000518 H 0.0 **** 0.06
6103 H 35.60811631181241 150.06655672464598 59.63525626525853 H 0.0 **** 0.06
6104 H 34.28674383894298 149.60948231787927 60.737243242119746 H 0.0 **** 0.06
6105 H 35.663843322712296 148.50878134449277 60.49413043252565 H 0.0 **** 0.06
6106 C 130.9271830198084 164.3245196878324 164.56429245967303 C 0.0 **** -0.24
6107 H 131.30178906187672 165.26019643397422 164.15015419357096 H 0.0 **** 0.06
6108 H 131.64261631146434 163.93564174196615 165.28896986165182 H 0.0 **** 0.06
6109 H 130.79246549001462 163.60001361833423 163.7605236151857 H 0.0 **** 0.06
6110 H 129.9710397333035 164.50226554620272 165.05695321732838 H 0.0 **** 0.06
6111 C 41.71432734497273 13.264298878363434 151.14538657045497 C 0.0 **** -0.24
6112 H 40.97573039487753 13.935917408613022 151.58335265222047 H 0.0 **** 0.06
6113 H 42.222045433686105 12.716270017247325 151.9392410286656 H 0.0 **** 0.06
6114 H 42.44414828115799 13.845992673743524 150.580576011044 H 0.0 **** 0.06
6115 H 41.21675193642329 12.561017751665247 150.4787273522239 H 0.0 **** 0.06
6116 C 42.16795890794518 118.90221499300202 15.204475331127526 C 0.0 **** -0.24
6117 H 42.629262505203826 119.01921839196862 16.185955554085297 H 0.0 **** 0.06
6118 H 41.908813332480264 117.85564455995774 15.047615343856592 H 0.0 **** 0.06
6119 H 42.86909789490656 119.22303953067208 14.434199461756862 H 0.0 **** 0.06
6120 H 41.26714332644312 119.51248519448919 15.152478096470304 H 0.0 **** 0.06
6121 C 165.7517257888606 167.4503665293297 109.9827646868278 C 0.0 **** -0.24
6122 H 165.16927386930158 168.3388731224104 110.22445861053353 H 0.0 **** 0.06
6123 H 165.89172331275765 167.39162946924694 108.90272539305903 H 0.0 **** 0.06
6124 H 165.2208278097758 166.56315477111167 110.32848253206242 H 0.0 **** 0.06
6125 H 166.7231252140804 167.5068335246824 110.47310415698706 H 0.0 **** 0.06
6126 C 137.0924213043537 117.25255542665974 80.58816817004858 C 0.0 **** -0.24
6127 H 137.9229571381577 116.99344409036951 79.93212113857257 H 0.0 **** 0.06
6128 H 137.25450123866943 116.81044981810402 81.57170410626247 H 0.0 **** 0.06
6129 H 136.16287866656222 116.86856288560068 80.16675693922784 H 0.0 **** 0.06
6130 H 137.028196329095 118.3366448824184 80.68273769743192 H 0.0 **** 0.06
6131 C 130.02629462018024 124.96278254104908 126.96045576112175 C 0.0 **** -0.24
6132 H 129.7112765469658 125.51958837415611 126.0782199372023 H 0.0 **** 0.06
6133 H 129.15123251586755 124.53695447640118 127.45243745396454 H 0.0 **** 0.06
6134 H 130.5395410770475 125.63389156380902 127.64908406198376 H 0.0 **** 0.06
6135 H 130.70247556961357 124.16111113903236 126.66271512860317 H 0.0 **** 0.06
6136 C 139.06760816626542 132.8128073320741 134.08342010664958 C 0.0 **** -0.24
6137 H 140.05554522918123 133.26978524464803 134.14190717198534 H 0.0 **** 0.06
6138 H 139.1032735580896 131.81325488934993 134.51758724123638 H 0.0 **** 0.06
6139 H 138.75961871736385 132.74510047202986 133.04003836200408 H 0.0 **** 0.06
6140 H 138.35222816128152 133.423604275679 134.63497223806579 H 0.0 **** 0.06
6141 C 17.552763138294495 156.7732775806931 154.07162009501167 C 0.0 **** -0.24
6142 H 16.688746888175842 156.86752715859325 153.41328876407078 H 0.0 **** 0.06
6143 H 18.21808577011342 157.6231127423943 153.9214496597519 H 0.0 **** 0.06
6144 H 18.08447531849137 155.84961312743266 153.8425517055758 H 0.0 **** 0.06
6145 H 17.2178577427847 156.75191549408206 155.1084466036699 H 0.0 **** 0.06
6146 C 100.65390386638805 120.60738307087664 6.408429811828313 C 0.0 **** -0.24
6147 H 99.57014726419183 120.59946043369055 6.293612413909102 H 0.0 **** 0.06
6148 H 100.93070625208045 120.0248629624075 7.287571420501422 H 0.0 **** 0.06
6149 H 100.99857683927556 121.63446155896136 6.530103625913739 H 0.0 **** 0.06
6150 H 101.1166080125366 120.17183262192438 5.523233876372984 H 0.0 **** 0.06
6151 C 81.03064954306916 11.211214057053922 47.64560915256969 C 0.0 **** -0.24
6152 H 80.42823292861863 10.783317696843909 48.44629141438139 H 0.0 **** 0.06
6153 H 81.81977870440798 10.510617419406088 47.372470534261325 H 0.0 **** 0.06
6154 H 81.47515146296729 12.146362973615055 47.985100994574296 H 0.0 **** 0.06
6155 H 80.39870723608317 11.402443893220891 46.77855480348531 H 0.0 **** 0.06
6156 C 164.41011645668215 58.91539533293464 67.99095337934624 C 0.0 **** -0.24
6157 H 165.31172685934456 58.94899585879193 68.60220362192526 H 0.0 **** 0.06
6158 H 164.5996279146808 59.40743919945352 67.0363500801308 H 0.0 **** 0.06
6159 H 163.5999473981321 59.427242562720195 68.51037969433044 H 0.0 **** 0.06
6160 H 164.12994684092888 57.876744567017994 67.81508763183717 H 0.0 **** 0.06
6161 C 42.614413313130996 147.53010040560764 19.145936226130317 C 0.0 **** -0.24
6162 H 43.3891924591253 147.50748434682083 18.379259640225484 H 0.0 **** 0.06
6163 H 41.63547496078354 147.44729338317728 18.67480900613164 H 0.0 **** 0.06
6164 H 42.675805169292005 148.4693375741946 19.696360415731156 H 0.0 **** 0.06
6165 H 42.7599083336882 146.69699393433567 19.833072291017523 H 0.0 **** 0.06
6166 C 5.000224107126769 119.34163892602646 144.26751838044817 C 0.0 **** -0.24
6167 H 4.548132541066991 120.3117584874229 144.47295310703882 H 0.0 **** 0.06
6168 H 5.636490120937481 119.417072036246 143.3846409011269 H 0.0 **** 0.06
6169 H 4.216783530701775 118.60601296035867 144.08971105994024 H 0.0 **** 0.06
6170 H 5.6014780952112915 119.03269037475025 145.12246552124986 H 0.0 **** 0.06
6171 C 86.55524083259361 69.10543193324233 85.94037393141662 C 0.0 **** -0.24
6172 H 85.9536056724584 69.64570554574827 86.67077568500167 H 0.0 **** 0.06
6173 H 86.06358606918488 69.13869639802888 84.96867067203634 H 0.0 **** 0.06
6174 H 86.66555066200162 68.06779390310305 86.2581903788864 H 0.0 **** 0.06
6175 H 87.53953673925714 69.56847631205439 85.86688466917542 H 0.0 **** 0.06
6176 C 7.311775962459855 15.488808686021287 71.93308363731875 C 0.0 **** -0.24
6177 H 7.888290255075965 16.414286116994134 71.93208271023784 H 0.0 **** 0.06
6178 H 6.657211553478952 15.468823120321026 72.80442983519758 H 0.0 **** 0.06
6179 H 7.99221007921183 14.638358107910896 71.96925540756368 H 0.0 **** 0.06
6180 H 6.71107418811107 15.435010086199412 71.02441576036443 H 0.0 **** 0.06
6181 C 163.2785386783094 59.77093955138773 39.02615190139808 C 0.0 **** -0.24
6182 H 163.9112242245311 60.31446265000932 38.32440919410023 H 0.0 **** 0.06
6183 H 163.70710440841418 58.78514058771964 39.212418003490285 H 0.0 **** 0.06
6184 H 162.2806091019501 59.6595114475023 38.60395824996587 H 0.0 **** 0.06
6185 H 163.2172049504638 60.323735482366146 39.963349322359775 H 0.0 **** 0.06
6186 C 145.4200823656322 94.97628821647879 153.18644923971075 C 0.0 **** -0.24
6187 H 144.58297252997244 94.34363367308728 152.89041114775486 H 0.0 **** 0.06
6188 H 146.2837121604039 94.35188619160417 153.4170981008317 H 0.0 **** 0.06
6189 H 145.14352517002078 95.55532711851842 154.06763722020042 H 0.0 **** 0.06
6190 H 145.6690327546043 95.65377628018305 152.3694101806527 H 0.0 **** 0.06
6191 C 133.83896574188392 172.69058358201582 41.917987120348556 C 0.0 **** -0.24
6192 H 133.15881355768852 173.42295606122258 42.3536082411884 H 0.0 **** 0.06
6193 H 133.89354193530772 172.84379043150705 40.84013217243458 H 0.0 **** 0.06
6194 H 133.4708914987481 171.68568088267074 42.124527909610066 H 0.0 **** 0.06
6195 H 134.8304045436634 172.81188341621936 42.35413116940302 H 0.0 **** 0.06
6196 C 127.46560727845102 159.54619692668695 2.1117641157294003 C 0.0 **** -0.24
6197 H 127.47462001861604 159.7686474785791 3.1780270580838206 H 0.0 **** 0.06
6198 H 127.98180013725221 160.34005956315585 1.5708294940428686 H 0.0 **** 0.06
6199 H 126.43492573059049 159.48011287435895 1.7626256861885778 H 0.0 **** 0.06
6200 H 127.97001779162287 158.59681513477028 1.9345032724721563 H 0.0 **** 0.06
6201 C 62.78649342852175 54.3021223666546 129.99104171879642 C 0.0 **** -0.24
6202 H 62.4476492648008 54.65536019823382 129.0179426448535 H 0.0 **** 0.06
6203 H 63.394494486303685 55.07241793273896 130.46558638762974 H 0.0 **** 0.06
6204 H 63.381638061529316 53.39809246915016 129.86101094222198 H 0.0 **** 0.06
6205 H 61.923132598639825 54.082135357945305 130.61868809051646 H 0.0 **** 0.06
6206 C 97.95870609718128 47.57004017684426 77.02416364791537 C 0.0 **** -0.24
6207 H 97.57444719456822 46.8886434229548 76.26520466284808 H 0.0 **** 0.06
6208 H 98.73875599925128 48.19554608854389 76.58900078455102 H 0.0 **** 0.06
6209 H 98.37282721236187 46.9943683449477 77.8523549593221 H 0.0 **** 0.06
6210 H 97.14770957887669 48.2007584371525 77.38976088339217 H 0.0 **** 0.06
6211 C 151.64346217093814 47.21336811114466 87.48393296140098 C 0.0 **** -0.24
6212 H 151.5700882746724 46.129419450034675 87.57751599362305 H 0.0 **** 0.06
6213 H 152.0190894886514 47.46744431704698 86.49265016113704 H 0.0 **** 0.06
6214 H 152.32803554009172 47.596792417680035 88.24135709830239 H 0.0 **** 0.06
6215 H 150.65902958021803 47.65772569171463 87.62515603076648 H 0.0 **** 0.06
6216 C 143.85913726191222 57.35153647040238 28.71907679357389 C 0.0 **** -0.24
6217 H 144.22998828393762 56.41243056416357 29.128496837848928 H 0.0 **** 0.06
6218 H 143.97578053412408 58.14200945453214 29.460949433383178 H 0.0 **** 0.06
6219 H 142.8054614367839 57.24586701993175 28.46279690910103 H 0.0 **** 0.06
6220 H 144.42723288758924 57.60633551910185 27.824363436294448 H 0.0 **** 0.06
6221 C 117.11263390532469 44.78618324012004 89.97002166014721 C 0.0 **** -0.24
6222 H 116.12517906795478 44.51455177370332 90.34170357358988 H 0.0 **** 0.06
6223 H 117.46816290040795 45.671264107084724 90.49683391816427 H 0.0 **** 0.06
6224 H 117.0522862819729 44.998504833937275 88.90234431859352 H 0.0 **** 0.06
6225 H 117.80421770719329 43.96027954297239 90.13708188570212 H 0.0 **** 0.06
6226 C 83.02690837040814 38.1281107405232 20.594246937469144 C 0.0 **** -0.24
6227 H 83.12929862551019 37.18190299074209 21.124919431088593 H 0.0 **** 0.06
6228 H 83.91586033601192 38.30300196896326 19.98855012008063 H 0.0 **** 0.06
6229 H 82.91257889430386 38.93807387523265 21.314460564395958 H 0.0 **** 0.06
6230 H 82.14866694940594 38.088792297944735 19.948860009215352 H 0.0 **** 0.06
6231 C 169.1116721232954 76.14630940291485 80.76235252613958 C 0.0 **** -0.24
6232 H 168.5128973767792 76.6535993871595 80.00609208719948 H 0.0 **** 0.06
6233 H 170.05664054572136 76.67327192593834 80.89079059835132 H 0.0 **** 0.06
6234 H 169.30685707252744 75.12164144978786 80.44415189806875 H 0.0 **** 0.06
6235 H 168.56905518498766 76.13613566909362 81.70802982790872 H 0.0 **** 0.06
6236 C 168.07338915061337 9.246207835707246 84.73708623021577 C 0.0 **** -0.24
6237 H 167.05715635723251 9.424467934456409 84.38637065422621 H 0.0 **** 0.06
6238 H 168.35325866684846 8.213021775368496 84.52810096287796 H 0.0 **** 0.06
6239 H 168.1240260660286 9.427150311619329 85.81113601032115 H 0.0 **** 0.06
6240 H 168.75911551234373 9.9201913213847 84.22273729343785 H 0.0 **** 0.06
6241 C 79.94620425759715 97.55733904332209 162.92217494933993 C 0.0 **** -0.24
6242 H 79.3514470087984 97.66127338113603 163.8290385669682 H 0.0 **** 0.06
6243 H 80.98521527030982 97.80435409650079 163.13911929854393 H 0.0 **** 0.06
6244 H 79.56278521193713 98.23367903369598 162.15728458007848 H 0.0 **** 0.06
6245 H 79.88322904896825 96.52981907556813 162.56265297561805 H 0.0 **** 0.06
6246 C 149.96409234697654 109.63683869831465 66.22166001395286 C 0.0 **** -0.24
6247 H 149.8202003871569 108.66534177964914 65.74825105692149 H 0.0 **** 0.06
6248 H 150.64133517642688 109.53173064498873 67.0690994662485 H 0.0 **** 0.06
6249 H 149.00352740635594 110.0183319152139 66.56834158820213 H 0.0 **** 0.06
6250 H 150.39114851737986 110.33231527946248 65.49874746517018 H 0.0 **** 0.06
6251 C 149.32665001799637 84.58131034722027 62.44427445267189 C 0.0 **** -0.24
6252 H 149.0082760041547 83.6077451376654 62.0704122064609 H 0.0 **** 0.06
6253 H 150.07275045279084 84.44319894320694 63.22641417740209 H 0.0 **** 0.06
6254 H 148.46584165015685 85.1120097641637 62.85121458510196 H 0.0 **** 0.06
6255 H 149.75741399477434 85.16052702407814 61.62782077374516 H 0.0 **** 0.06
6256 C 59.2534062801396 110.7496929661412 93.40662052267544 C 0.0 **** -0.24
6257 H 60.30181348482786 110.66032390174041 93.1243942800665 H 0.0 **** 0.06
6258 H 59.12842658706104 111.59793107143662 94.0795353565021 H 0.0 **** 0.06
6259 H 58.93245972323547 109.83732358465363 93.90795231580779 H 0.0 **** 0.06
6260 H 58.64904891393854 110.90460435168666 92.51186364510306 H 0.0 **** 0.06
6261 C 139.80305948940276 143.1293356823979 66.41013577842114 C 0.0 **** -0.24
6262 H 138.7326756039016 143.1041339490731 66.61342715460728 H 0.0 **** 0.06
6263 H 140.21821012621461 142.12769549771807 66.52262168571121 H 0.0 **** 0.06
6264 H 140.2897266290919 143.80612994182664 67.11377124051796 H 0.0 **** 0.06
6265 H 139.97109111256242 143.48110430602583 65.39238218075212 H 0.0 **** 0.06
6266 C 1.5505408059672163 9.45227585859135 96.1645509261478 C 0.0 **** -0.24
6267 H 1.4441916191417477 10.506307928343233 95.90686808243794 H 0.0 **** 0.06
6268 H 1.0298335731032182 8.84363589122458 95.42462891700092 H 0.0 **** 0.06
6269 H 1.1205320576874556 9.27515364387034 97.15042028144086 H 0.0 **** 0.06
6270 H 2.607704322789857 9.186156304104998 96.1756810028765 H 0.0 **** 0.06
6271 C 70.96226377141933 97.1940926930427 50.78750659369777 C 0.0 **** -0.24
6272 H 70.32386632696726 98.0085156290209 51.12929184314281 H 0.0 **** 0.06
6273 H 71.83737646365375 97.12208965202882 51.43401069062331 H 0.0 **** 0.06
6274 H 71.28086774336356 97.38684404874982 49.76375781082835 H 0.0 **** 0.06
6275 H 70.40603843521123 96.25734222194183 50.82426416555762 H 0.0 **** 0.06
6276 C 74.13080200178433 122.18834848150726 11.91378761832135 C 0.0 **** -0.24
6277 H 73.18973735929126 122.6546527039173 12.205520196487726 H 0.0 **** 0.06
6278 H 74.79880828348121 122.1509023907617 12.773929214503426 H 0.0 **** 0.06
6279 H 74.59459529042522 122.77367359306947 11.119247808517088 H 0.0 **** 0.06
6280 H 73.94014141079009 121.17732183759989 11.55662827974092 H 0.0 **** 0.06
6281 C 102.19743961818699 1.045235180840379 141.53300620886375 C 0.0 **** -0.24
6282 H 103.03554727127471 0.9325698279642651 140.84529386776336 H 0.0 **** 0.06
6283 H 101.86491439561678 0.06077482838411896 141.86468078076007 H 0.0 **** 0.06
6284 H 101.37768225337743 1.5541923934628983 141.02638347693295 H 0.0 **** 0.06
6285 H 102.51284366489756 1.6316510917318325 142.3963131458357 H 0.0 **** 0.06
6286 C 52.11748615474528 71.55414180211739 15.32225342681997 C 0.0 **** -0.24
6287 H 52.996972773661525 70.91508551997032 15.238745572920976 H 0.0 **** 0.06
6288 H 52.42624039467597 72.59969041984561 15.320803081010297 H 0.0 **** 0.06
6289 H 51.59346355980193 71.32995560402122 16.251229232039748 H 0.0 **** 0.06
6290 H 51.45400709208042 71.36995980990503 14.476844807950698 H 0.0 **** 0.06
6291 C 87.39361474164606 160.97852827066063 71.2611425072987 C 0.0 **** -0.24
6292 H 87.75749252478026 159.95326106305967 71.19500407039578 H 0.0 **** 0.06
6293 H 86.35309538934077 160.97357043888692 71.58839948564565 H 0.0 **** 0.06
6294 H 87.46449022373353 161.4517449206491 70.28223401895104 H 0.0 **** 0.06
6295 H 87.99775684792739 161.53396926031132 71.9779805550408 H 0.0 **** 0.06
6296 C 109.02144109865998 34.23070696029782 110.66088615402302 C 0.0 **** -0.24
6297 H 108.93158332507119 35.27312271251816 110.96591427591164 H 0.0 **** 0.06
6298 H 109.67228771750615 34.162813771233516 109.78946985628644 H 0.0 **** 0.06
6299 H 108.03538411316057 33.839989360121365 110.40968391994744 H 0.0 **** 0.06
6300 H 109.44536796418637 33.64750173001801 111.4790578285824 H 0.0 **** 0.06
6301 C 20.794877858112827 166.83436986759682 73.18006554808767 C 0.0 **** -0.24
6302 H 21.21319080767102 166.27320401020552 74.01458894022335 H 0.0 **** 0.06
6303 H 21.1579870421209 167.86154599834373 73.21411113239992 H 0.0 **** 0.06
6304 H 19.70624935228767 166.83028361910084 73.24789260267073 H 0.0 **** 0.06
6305 H 21.101597535930672 166.37178408997966 72.2413618386995 H 0.0 **** 0.06
6306 C 153.06834867303144 58.387482053698534 20.077176226587113 C 0.0 **** -0.24
6307 H 152.80612234971966 59.12285591780463 19.315567493847425 H 0.0 **** 0.06
6308 H 152.17485055302123 57.83770350874292 20.37259430235656 H 0.0 **** 0.06
6309 H 153.48630526522476 58.896887895052814 20.944529162608546 H 0.0 **** 0.06
6310 H 153.805760341513 57.693267614589786 19.673140890844365 H 0.0 **** 0.06
6311 C 10.733550066983582 140.33220290810937 48.98155497099927 C 0.0 **** -0.24
6312 H 9.995233451821974 140.9534625343206 49.48857788851255 H 0.0 **** 0.06
6313 H 10.937431602387164 140.74554120105665 47.9940941144785 H 0.0 **** 0.06
6314 H 10.345889541143265 139.31874564251143 48.87932060853228 H 0.0 **** 0.06
6315 H 11.653255052246067 140.31254983310924 49.56566682926514 H 0.0 **** 0.06
6316 C 76.55327456466148 170.1578353335728 31.899896136316187 C 0.0 **** -0.24
6317 H 77.22306913227462 169.3207062836862 31.7028571053377 H 0.0 **** 0.06
6318 H 76.25789529419555 170.14822350038878 32.9495155485356 H 0.0 **** 0.06
6319 H 75.66572001810412 170.0681220870887 31.272002276043807 H 0.0 **** 0.06
6320 H 77.06482891779469 171.09335661211819 31.673937596304995 H 0.0 **** 0.06
6321 C 13.28730599847998 56.047574829203114 99.63757407623672 C 0.0 **** -0.24
6322 H 14.08886223663501 55.54097293997995 100.17508064037867 H 0.0 **** 0.06
6323 H 12.755719130346165 55.327107319257095 99.0153649688603 H 0.0 **** 0.06
6324 H 13.71143556616687 56.82965821341435 99.0071504890185 H 0.0 **** 0.06
6325 H 12.59535361645601 56.49214581383177 100.35316944882328 H 0.0 **** 0.06
6326 C 77.40872289826694 97.05754041213629 25.98918096216154 C 0.0 **** -0.24
6327 H 78.08265272313784 97.63073857596058 26.62628429453398 H 0.0 **** 0.06
6328 H 77.02122916421973 96.2034297710951 26.545952771084387 H 0.0 **** 0.06
6329 H 77.9517592275896 96.70380544557102 25.11247045210304 H 0.0 **** 0.06
6330 H 76.58126211186385 97.69128168067834 25.67238008328168 H 0.0 **** 0.06
6331 C 140.59849636368654 138.99429668452 66.56809598296155 C 0.0 **** -0.24
6332 H 141.29366278658858 139.54423286264586 67.20169364897194 H 0.0 **** 0.06
6333 H 140.9494719417004 139.01945202127234 65.53674225069457 H 0.0 **** 0.06
6334 H 139.61191554983202 139.45380275812772 66.62764133655288 H 0.0 **** 0.06
6335 H 140.53876951796727 137.96014337541692 66.90718715060635 H 0.0 **** 0.06
6336 C 65.27895928096794 73.3430870472434 133.95490535406347 C 0.0 **** -0.24
6337 H 65.35366302977692 73.00449014479612 132.92103558428008 H 0.0 **** 0.06
6338 H 64.33145608528699 73.8625002490502 134.09790815886117 H 0.0 **** 0.06
6339 H 66.10309623303067 74.02245242700624 134.17482392534424 H 0.0 **** 0.06
6340 H 65.32808469847191 72.48361899844356 134.62221000993637 H 0.0 **** 0.06
6341 C 33.45511576959423 86.0051733430916 70.45105709255091 C 0.0 **** -0.24
6342 H 33.33608958403752 85.24800902435936 69.67600732097719 H 0.0 **** 0.06
6343 H 32.488062789630675 86.4632331570063 70.66195982984895 H 0.0 **** 0.06
6344 H 34.152043177389814 86.76933586459023 70.10806730926075 H 0.0 **** 0.06
6345 H 33.84211179426019 85.5393338587889 71.35733234704443 H 0.0 **** 0.06
6346 C 80.35159557538066 82.94668923948345 133.84134394876298 C 0.0 **** -0.24
6347 H 80.69433223123224 81.93573552062702 133.61894032466202 H 0.0 **** 0.06
6348 H 81.17463887261476 83.5244653707378 134.2621879395108 H 0.0 **** 0.06
6349 H 79.5327218694984 82.90267655052907 134.55905622263703 H 0.0 **** 0.06
6350 H 80.00528435317483 83.42187494809008 132.92328660983 H 0.0 **** 0.06
6351 C 74.0065753652911 150.60409655761626 79.16739036832386 C 0.0 **** -0.24
6352 H 73.02809568764411 150.19556582043234 78.91481494878876 H 0.0 **** 0.06
6353 H 73.9769813552146 151.6914963949127 79.09137720447451 H 0.0 **** 0.06
6354 H 74.75331800345762 150.21045534205948 78.47759676230991 H 0.0 **** 0.06
6355 H 74.26628980439406 150.31792684816037 80.18647941571686 H 0.0 **** 0.06
6356 C 35.72139319194088 144.9172755982305 86.19209191267768 C 0.0 **** -0.24
6357 H 36.18206285002424 144.46467958414252 85.31378700565868 H 0.0 **** 0.06
6358 H 36.031687731009754 144.37484658003166 87.08508196850632 H 0.0 **** 0.06
6359 H 34.63600233956504 144.8718883642049 86.09675087802766 H 0.0 **** 0.06
6360 H 36.03622878088754 145.95838465717182 86.27043534941927 H 0.0 **** 0.06
6361 C 63.40851353819596 5.959558181714442 130.27356657427592 C 0.0 **** -0.24
6362 H 63.17317519636218 6.815018965222947 130.9072872676574 H 0.0 **** 0.06
6363 H 62.61896891068251 5.213590141819054 130.36511521273718 H 0.0 **** 0.06
6364 H 64.35734529070315 5.525385158429003 130.58772459025656 H 0.0 **** 0.06
6365 H 63.48317959815323 6.285448451488264 129.2365093563541 H 0.0 **** 0.06
6366 C 7.793604361901849 172.62105727225952 65.13887695564529 C 0.0 **** -0.24
6367 H 7.547958738519185 173.5707384613096 65.61545757544195 H 0.0 **** 0.06
6368 H 6.983366193142224 171.9115337202072 65.30688774385808 H 0.0 **** 0.06
6369 H 8.716713010726089 172.22845406827298 65.56501346535603 H 0.0 **** 0.06
6370 H 7.924997044650041 172.77601287526412 64.06726090879096 H 0.0 **** 0.06
6371 C 13.883454645330346 65.61227517858993 23.333143341178925 C 0.0 **** -0.24
6372 H 12.857595402964478 65.82018801737402 23.030445096582866 H 0.0 **** 0.06
6373 H 14.224556402138518 66.38810253290129 24.01904472625415 H 0.0 **** 0.06
6374 H 14.52608011344131 65.59697312442218 22.452220772914075 H 0.0 **** 0.06
6375 H 13.926209708967406 64.64329326547265 23.830300495892743 H 0.0 **** 0.06
6376 C 77.3647506800135 67.12544671328499 64.19590855856127 C 0.0 **** -0.24
6377 H 78.3004181894602 67.34127392637157 63.679207351936526 H 0.0 **** 0.06
6378 H 76.5805327805447 66.94194092075956 63.46147878378952 H 0.0 **** 0.06
6379 H 77.08925356745057 67.97576083242828 64.81816041246229 H 0.0 **** 0.06
6380 H 77.4907348565441 66.24183239358005 64.82208738627288 H 0.0 **** 0.06
6381 C 135.8339645996268 110.46245359447647 8.110010824420215 C 0.0 **** -0.24
6382 H 136.12888339901866 110.20252636006933 9.126624279924897 H 0.0 **** 0.06
6383 H 135.75808819322395 111.54630125951718 8.020037449230813 H 0.0 **** 0.06
6384 H 134.86723939662613 110.01155477494939 7.8853447874979565 H 0.0 **** 0.06
6385 H 136.58075629934092 110.09037253755994 7.408603646193853 H 0.0 **** 0.06
6386 C 71.50965780364447 156.2723531088535 118.45675556210318 C 0.0 **** -0.24
6387 H 70.82413299276624 157.0980757358322 118.26852156779222 H 0.0 **** 0.06
6388 H 72.4746771033956 156.66718119367977 118.77597452470769 H 0.0 **** 0.06
6389 H 71.63849741592651 155.69215382952444 117.54290691899502 H 0.0 **** 0.06
6390 H 71.10105250642775 155.6317648879894 119.23868627824419 H 0.0 **** 0.06
6391 C 83.50970129767194 22.83967263598157 81.75302150616484 C 0.0 **** -0.24
6392 H 83.15252087421572 22.28005563348296 82.61708002241714 H 0.0 **** 0.06
6393 H 84.37901642653321 23.43390298698472 82.03907701257745 H 0.0 **** 0.06
6394 H 82.71967127093188 23.500327927765966 81.39574663767539 H 0.0 **** 0.06
6395 H 83.78877130949701 22.145664343918725 80.96036042050942 H 0.0 **** 0.06
6396 C 87.14617970293403 17.95784330249967 51.60340171844868 C 0.0 **** -0.24
6397 H 86.67998459696231 17.428088643207445 52.433845753609134 H 0.0 **** 0.06
6398 H 86.72816169354873 18.96176637985718 51.53250340872839 H 0.0 **** 0.06
6399 H 86.95505202480656 17.41854644246439 50.67559823986184 H 0.0 **** 0.06
6400 H 88.22130746150036 18.022373271150855 51.77088715446993 H 0.0 **** 0.06
6401 C 61.57507317433502 61.38275935165166 108.05817046131173 C 0.0 **** -0.24
6402 H 60.56838806692079 61.66349114971396 107.74778046458906 H 0.0 **** 0.06
6403 H 61.85336707005055 60.44297096113446 107.58060110406154 H 0.0 **** 0.06
6404 H 61.60178937917841 61.26319394645098 109.14150261614733 H 0.0 **** 0.06
6405 H 62.27645276263962 62.1628395134542 107.76191077319817 H 0.0 **** 0.06
6406 C 123.32752762919816 62.31272103943246 79.57951971993043 C 0.0 **** -0.24
6407 H 123.58912587800214 63.347628739595706 79.35852062687731 H 0.0 **** 0.06
6408 H 124.18732176960935 61.808265877195424 80.0212280294157 H 0.0 **** 0.06
6409 H 123.04120661505056 61.805932398694324 78.65892551759302 H 0.0 **** 0.06
6410 H 122.49390528725237 62.290915340264974 80.28151365876249 H 0.0 **** 0.06
6411 C 161.46739067339269 39.183689517412404 5.051874999471096 C 0.0 **** -0.24
6412 H 161.5451067746865 38.10748511061786 4.8957068767795135 H 0.0 **** 0.06
6413 H 162.43700918279876 39.57751388099564 5.35683812230576 H 0.0 **** 0.06
6414 H 160.73189132653818 39.384874799372426 5.831569435254778 H 0.0 **** 0.06
6415 H 161.1537582296501 39.663077924803304 4.124969066475757 H 0.0 **** 0.06
6416 C 146.63476104725243 124.34098517449121 35.35945775952001 C 0.0 **** -0.24
6417 H 145.88619911003838 124.18415303022354 34.582655405649234 H 0.0 **** 0.06
6418 H 146.99159656443794 125.37026729483304 35.31705577877295 H 0.0 **** 0.06
6419 H 147.47058199988606 123.65948235582667 35.20198896592876 H 0.0 **** 0.06
6420 H 146.18927808097624 124.14978467928123 36.33622104184025 H 0.0 **** 0.06
6421 C 49.358907251821336 111.85349299541352 140.15134994254538 C 0.0 **** -0.24
6422 H 48.53121529859453 111.9931158036326 139.4558136792068 H 0.0 **** 0.06
6423 H 49.80448823075385 112.82037390050522 140.3849609184128 H 0.0 **** 0.06
6424 H 50.110795823308294 111.20790863417935 139.69635804986416 H 0.0 **** 0.06
6425 H 48.99008658568849 111.39138085709291 141.06697807046788 H 0.0 **** 0.06
6426 C 108.88733395227663 134.26342525630338 114.71295651537486 C 0.0 **** -0.24
6427 H 109.05507401290794 133.87334284273518 115.71656657502405 H 0.0 **** 0.06
6428 H 108.15823378284273 133.63715452434982 114.19671223219734 H 0.0 **** 0.06
6429 H 109.82674097283152 134.25827702544615 114.16058515735048 H 0.0 **** 0.06
6430 H 108.50894711006728 135.28356245171935 114.77811543787948 H 0.0 **** 0.06
6431 C 44.77407441240588 133.05931322946265 21.96420649140122 C 0.0 **** -0.24
6432 H 44.33068655983439 133.4520812491603 22.8783780491987 H 0.0 **** 0.06
6433 H 45.28365269532887 132.12008794932 22.182639711236767 H 0.0 **** 0.06
6434 H 45.49088587726075 133.7791246142442 21.569730808998706 H 0.0 **** 0.06
6435 H 43.99162619454381 132.88357990179838 21.225895735730127 H 0.0 **** 0.06
6436 C 78.62680877554925 100.80123863154861 40.27308444934869 C 0.0 **** -0.24
6437 H 77.59269281959416 101.13211190379096 40.359079804672945 H 0.0 **** 0.06
6438 H 79.19537585330318 101.15897883453218 41.131811778500094 H 0.0 **** 0.06
6439 H 79.06171980400654 101.20208989861615 39.35712109635614 H 0.0 **** 0.06
6440 H 78.65891605873827 99.71268303794625 40.2442055444437 H 0.0 **** 0.06
6441 C 118.91306947051476 67.03244421480713 17.427091235750147 C 0.0 **** -0.24
6442 H 118.05168258067343 67.28845091486309 18.044304643799848 H 0.0 **** 0.06
6443 H 118.5892160002478 66.88976673781227 16.39515843327959 H 0.0 **** 0.06
6444 H 119.36505705885935 66.11218490494005 17.7977031882753 H 0.0 **** 0.06
6445 H 119.64330363831996 67.84022143619109 17.47078555239905 H 0.0 **** 0.06
6446 C 134.738712963925 1.3448139980416443 158.47137258833098 C 0.0 **** -0.24
6447 H 134.0524061978232 0.8472767797328515 157.78655881201425 H 0.0 **** 0.06
6448 H 135.66254635380136 0.769949003168847 158.54148900177339 H 0.0 **** 0.06
6449 H 134.2790687646357 1.4161077986823898 159.45815860613004 H 0.0 **** 0.06
6450 H 134.9603711049995 2.3450121384527733 158.1015111496591 H 0.0 **** 0.06
6451 C 63.80875356402899 88.77342367351781 155.4935042130153 C 0.0 **** -0.24
6452 H 64.07989288140502 89.65150526165877 154.9077889525878 H 0.0 **** 0.06
6453 H 64.21439539005016 88.86924090947122 156.50036862023634 H 0.0 **** 0.06
6454 H 64.2164081215453 87.8807782576092 155.0198555173046 H 0.0 **** 0.06
6455 H 62.72208559975854 88.69314597339047 155.545748494071 H 0.0 **** 0.06
6456 C 33.50807571977998 10.26839709990417 22.912205406099062 C 0.0 **** -0.24
6457 H 34.363107454292845 10.088907570626404 23.563557393573518 H 0.0 **** 0.06
6458 H 32.931662500005984 9.348970887202363 22.80820813144456 H 0.0 **** 0.06
6459 H 33.860548266962155 10.591138901878566 21.93229518964869 H 0.0 **** 0.06
6460 H 32.8786907908725 11.046060680688932 23.34569378060968 H 0.0 **** 0.06
6461 C 97.68955661015428 9.819997686621264 64.34982035583477 C 0.0 **** -0.24
6462 H 97.53103696518204 8.890308000484282 64.89636934400893 H 0.0 **** 0.06
6463 H 98.0882746171269 9.595875059668941 63.360600878409656 H 0.0 **** 0.06
6464 H 98.39724183535145 10.445329858137598 64.89310706841324 H 0.0 **** 0.06
6465 H 96.74099334779936 10.347776225643031 64.24899006832904 H 0.0 **** 0.06
6466 C 48.95637800193907 16.784979222593904 69.23503382023617 C 0.0 **** -0.24
6467 H 49.58440193975605 17.28634811975104 69.97124393887688 H 0.0 **** 0.06
6468 H 47.96099550067032 17.230617698145636 69.24365055112473 H 0.0 **** 0.06
6469 H 48.88326765354739 15.726477667293778 69.48131916817758 H 0.0 **** 0.06
6470 H 49.39703272356013 16.898823380048043 68.24458740085319 H 0.0 **** 0.06
6471 C 45.028258969538 137.68232072462425 132.78621820570598 C 0.0 **** -0.24
6472 H 44.524558072430466 138.06197484532117 131.8967451227094 H 0.0 **** 0.06
6473 H 45.89305608078428 138.30818793610226 133.00875674856846 H 0.0 **** 0.06
6474 H 45.35639239694359 136.6587611564666 132.6078241945106 H 0.0 **** 0.06
6475 H 44.33811052801502 137.70167204836605 133.62969425204852 H 0.0 **** 0.06
6476 C 126.41560086403965 145.47646977431583 83.98137199982995 C 0.0 **** -0.24
6477 H 127.43364867100209 145.09723634115417 84.07132675133164 H 0.0 **** 0.06
6478 H 126.40565935199459 146.54534812648737 84.19493796768046 H 0.0 **** 0.06
6479 H 125.77174273589694 144.95701252298653 84.6915487930981 H 0.0 **** 0.06
6480 H 126.05171751489496 145.3045891328858 82.9677033277477 H 0.0 **** 0.06
6481 C 2.3931803129339215 36.47893169359918 22.760479805076926 C 0.0 **** -0.24
6482 H 1.9701298887492271 36.31937020239724 23.752591024287597 H 0.0 **** 0.06
6483 H 2.032587466362017 35.70452794396334 22.08366756507928 H 0.0 **** 0.06
6484 H 3.480327721261844 36.4355779986231 22.81806562192594 H 0.0 **** 0.06
6485 H 2.08751743788455 37.45780211087657 22.388985336010506 H 0.0 **** 0.06
6486 C 63.46795931705017 23.6092468321242 86.79530474446693 C 0.0 **** -0.24
6487 H 64.28733517193115 23.11102567198907 86.27723808270844 H 0.0 **** 0.06
6488 H 63.41174850848279 23.243181017867073 87.82170740485928 H 0.0 **** 0.06
6489 H 62.530432762603795 23.39828039866785 86.28183879528929 H 0.0 **** 0.06
6490 H 63.64437745184773 24.685190119041238 86.8034834233816 H 0.0 **** 0.06
6491 C 60.62009351704528 165.4559766923119 60.480040838417935 C 0.0 **** -0.24
6492 H 59.57068171459392 165.3858512220374 60.1942813853551 H 0.0 **** 0.06
6493 H 61.09749820033906 166.25687095430325 59.91358484399224 H 0.0 **** 0.06
6494 H 61.119678230528834 164.51132556516225 60.26468867724074 H 0.0 **** 0.06
6495 H 60.692269038547565 165.67152138941134 61.546133407574345 H 0.0 **** 0.06
6496 C 88.1772859232592 16.194973180257527 64.47223023545655 C 0.0 **** -0.24
6497 H 88.65063054015468 17.161287391356716 64.30303550205369 H 0.0 **** 0.06
6498 H 87.57603742384185 16.238224037070765 65.38036281916322 H 0.0 **** 0.06
6499 H 88.94448019263774 15.428579356965905 64.58108168050208 H 0.0 **** 0.06
6500 H 87.53825634536872 15.950432262589565 63.62420423292363 H 0.0 **** 0.06
6501 C 127.03961295916278 89.74661564158659 91.62911185640928 C 0.0 **** -0.24
6502 H 126.0968045540175 89.23275444888222 91.44338584261601 H 0.0 **** 0.06
6503 H 127.86339256471939 89.03785936116174 91.54203778798251 H 0.0 **** 0.06
6504 H 127.03009059770088 90.16985260354161 92.63387551137293 H 0.0 **** 0.06
6505 H 127.16747105264267 90.5460392529276 90.89949731906546 H 0.0 **** 0.06
6506 C 47.47020685274276 52.81964803879694 19.04540496910886 C 0.0 **** -0.24
6507 H 46.89036422642499 53.53773234676581 18.464936485874944 H 0.0 **** 0.06
6508 H 47.11440615391939 51.81072306234171 18.832537667614133 H 0.0 **** 0.06
6509 H 47.35197227102981 53.03082555492716 20.10743640943457 H 0.0 **** 0.06
6510 H 48.52253750448324 52.89904703657258 18.773312754220797 H 0.0 **** 0.06
6511 C 29.64007544113963 109.49119457536978 67.74339692760248 C 0.0 **** -0.24
6512 H 30.285587605407727 110.16329731435658 67.17683697910752 H 0.0 **** 0.06
6513 H 30.09268508637234 108.50060096875384 67.78207492285452 H 0.0 **** 0.06
6514 H 28.66644912253804 109.42843300279341 67.25824649920935 H 0.0 **** 0.06
6515 H 29.517818523307255 109.8748890279663 68.75626908016108 H 0.0 **** 0.06
6516 C 49.44358772012714 28.453140807458254 144.48383312472885 C 0.0 **** -0.24
6517 H 48.56653849942268 28.0341510532718 143.99135732536735 H 0.0 **** 0.06
6518 H 49.87824849903234 27.704614375476055 145.14826178539852 H 0.0 **** 0.06
6519 H 49.15193444311083 29.32794210446562 145.06352976424506 H 0.0 **** 0.06
6520 H 50.178500855338314 28.743032339016082 143.73270279314102 H 0.0 **** 0.06
6521 C 139.71582150355295 137.15857117072153 14.483023879171313 C 0.0 **** -0.24
6522 H 138.68295593983714 136.81971457122296 14.556855369051625 H 0.0 **** 0.06
6523 H 139.74715759746238 138.11284415332838 13.957051148436562 H 0.0 **** 0.06
6524 H 140.3011000531759 136.42146488201024 13.933105222757952 H 0.0 **** 0.06
6525 H 140.13085134139828 137.28020635004657 15.482961011603074 H 0.0 **** 0.06
6526 C 155.3242125540289 168.1290513114859 36.68830141349366 C 0.0 **** -0.24
6527 H 155.83612103672797 168.8930161557937 37.27442225301439 H 0.0 **** 0.06
6528 H 155.66811266175722 167.1423265400306 36.999745065414885 H 0.0 **** 0.06
6529 H 155.54570630094491 168.274657507835 35.63104574941798 H 0.0 **** 0.06
6530 H 154.24910938442395 168.20787010903018 36.85008818846853 H 0.0 **** 0.06
6531 C 6.391090481346822 26.683545318064063 27.43950599426057 C 0.0 **** -0.24
6532 H 6.447825221550886 27.380580028221353 28.27575175655113 H 0.0 **** 0.06
6533 H 5.412857048702961 26.201128150082184 27.43500526361032 H 0.0 **** 0.06
6534 H 7.1689950256903785 25.927050489894228 27.545029889684145 H 0.0 **** 0.06
6535 H 6.534260902099049 27.225509031838264 26.505525424328766 H 0.0 **** 0.06
6536 C 137.59335463958635 155.06775929681544 128.77246677956617 C 0.0 **** -0.24
6537 H 136.59405570305972 155.19228241041492 129.19265945711274 H 0.0 **** 0.06
6538 H 138.1498865436635 155.9988723886771 128.87790788615186 H 0.0 **** 0.06
6539 H 137.5129922419352 154.80829030504455 127.71673152887965 H 0.0 **** 0.06
6540 H 138.11306733175388 154.2711678481736 129.3040332777402 H 0.0 **** 0.06
6541 C 61.67503958674776 129.35842358207023 153.5136158220909 C 0.0 **** -0.24
6542 H 60.91528197742457 129.68906420351567 154.22225420440003 H 0.0 **** 0.06
6543 H 62.01615079194241 128.36013168523255 153.7873741341178 H 0.0 **** 0.06
6544 H 62.51802688672045 130.04985886590055 153.53659139825888 H 0.0 **** 0.06
6545 H 61.24999743245148 129.33535580247448 152.51024239937718 H 0.0 **** 0.06
6546 C 153.02866635052902 60.56046539084758 33.534757562564664 C 0.0 **** -0.24
6547 H 152.74969417657098 61.186621127470076 34.382424781461225 H 0.0 **** 0.06
6548 H 153.59395888321401 59.699094914809336 33.89056571430655 H 0.0 **** 0.06
6549 H 153.6422933879638 61.13854896222438 32.843295742214536 H 0.0 **** 0.06
6550 H 152.1278430294342 60.21937707122227 33.02377487162383 H 0.0 **** 0.06
6551 C 22.13547858829157 126.31892295484704 45.246088729849816 C 0.0 **** -0.24
6552 H 23.0325252270326 125.79510652496265 44.91799450227154 H 0.0 **** 0.06
6553 H 21.303372307248708 125.61626856744937 45.30231298593861 H 0.0 **** 0.06
6554 H 21.895980062245982 127.10875967184097 44.534242119524436 H 0.0 **** 0.06
6555 H 22.308000790070082 126.75646102277756 46.22961083212431 H 0.0 **** 0.06
6556 C 43.29943851500798 105.32517913249879 108.27649347953479 C 0.0 **** -0.24
6557 H 43.493398417731385 106.34846908832805 107.95251130058793 H 0.0 **** 0.06
6558 H 43.216565270568935 105.29809153933599 109.3634900307245 H 0.0 **** 0.06
6559 H 44.11918672352192 104.68155569578937 107.95733688586509 H 0.0 **** 0.06
6560 H 42.3672720735762 104.97497171698902 107.83185912472604 H 0.0 **** 0.06
6561 C 28.001336932928922 66.60780118360054 67.89920769871127 C 0.0 **** -0.24
6562 H 28.18062681548038 65.55129445967157 68.10105638715474 H 0.0 **** 0.06
6563 H 27.041271867755334 66.72341999005963 67.39747518865111 H 0.0 **** 0.06
6564 H 28.794616552101132 66.99314456423213 67.25878666160843 H 0.0 **** 0.06
6565 H 27.9913834008196 67.16032660446695 68.83833854715586 H 0.0 **** 0.06
6566 C 106.44405953786148 50.271158219582574 7.754479059887245 C 0.0 **** -0.24
6567 H 106.33890259820532 50.45538791747268 8.82418773715952 H 0.0 **** 0.06
6568 H 105.64626511225825 50.7840831997588 7.2177098425675865 H 0.0 **** 0.06
6569 H 106.38014590282825 49.200281917161945 7.562653188902118 H 0.0 **** 0.06
6570 H 107.41013045637186 50.64500825311853 7.414899429524496 H 0.0 **** 0.06
6571 C 161.72919812505745 162.54953279558256 94.44683054447583 C 0.0 **** -0.24
6572 H 161.82318456792558 161.6426966594011 95.04505540386074 H 0.0 **** 0.06
6573 H 162.6471135291879 162.70727711926943 93.88013994296014 H 0.0 **** 0.06
6574 H 161.5547769613665 163.4011977036307 95.10329553818255 H 0.0 **** 0.06
6575 H 160.89123984332952 162.44287682300072 93.75851115267622 H 0.0 **** 0.06
6576 C 74.07320594528183 35.49811934936872 148.53703084274392 C 0.0 **** -0.24
6577 H 73.53864805152732 36.29386615485572 148.0190037750483 H 0.0 **** 0.06
6578 H 74.65016209067123 35.92406479457787 149.35766612055068 H 0.0 **** 0.06
6579 H 74.74599214025392 34.99972208652068 147.83931020928705 H 0.0 **** 0.06
6580 H 73.35744939786049 34.77646594550049 148.93041755745688 H 0.0 **** 0.06
6581 C 42.31636691953213 1.034114797396029 143.4852321117536 C 0.0 **** -0.24
6582 H 42.51409846118585 1.4035767800996268 144.49153587793558 H 0.0 **** 0.06
6583 H 42.160459544311266 -0.04444734636044245 143.51833489249074 H 0.0 **** 0.06
6584 H 43.16603614458319 1.2607952820081891 142.84173826448983 H 0.0 **** 0.06
6585 H 41.42267210541746 1.5185548910679358 143.08958756131122 H 0.0 **** 0.06
6586 C 45.633123694257165 154.89164728577447 113.44516423820855 C 0.0 **** -0.24
6587 H 46.17813923138772 153.95115924524038 113.52251719093181 H 0.0 **** 0.06
6588 H 44.89311078956882 154.9492290473825 114.24468689856678 H 0.0 **** 0.06
6589 H 45.12988034332602 154.94240280719993 112.47965909074037 H 0.0 **** 0.06
6590 H 46.33117214570086 155.72460791325727 113.53493710100793 H 0.0 **** 0.06
6591 C 115.97306966787627 22.110231259742022 74.0125408268899 C 0.0 **** -0.24
6592 H 115.43513082694335 22.542183512012798 74.85693544093806 H 0.0 **** 0.06
6593 H 115.34946895644464 21.355241942957377 73.53290399281224 H 0.0 **** 0.06
6594 H 116.89406854035357 21.64796516055452 74.36692239956517 H 0.0 **** 0.06
6595 H 116.2122603605529 22.89388077960598 73.29406715904162 H 0.0 **** 0.06
6596 C 8.624876527051008 36.18152047251829 108.85103602892627 C 0.0 **** -0.24
6597 H 9.458871044090507 35.60891919826594 109.25644089084344 H 0.0 **** 0.06
6598 H 7.686124509943284 35.70270668814453 109.12960594071794 H 0.0 **** 0.06
6599 H 8.706284888702633 36.219055246535504 107.76410362887592 H 0.0 **** 0.06
6600 H 8.650744907440263 37.19487214125411 109.25245279948967 H 0.0 **** 0.06
6601 C 162.98874632125973 6.562993116845973 119.91620754159112 C 0.0 **** -0.24
6602 H 163.42115342753613 6.9058048007119055 118.97641691720503 H 0.0 **** 0.06
6603 H 163.0324949610511 7.36763838523882 120.65044881261983 H 0.0 **** 0.06
6604 H 163.55185184863157 5.70435282263378 120.28298706239849 H 0.0 **** 0.06
6605 H 161.95070864834378 6.274711296057603 119.75451174904603 H 0.0 **** 0.06
6606 C 11.035051209237707 15.669948166075507 152.97319795887006 C 0.0 **** -0.24
6607 H 10.283442439486294 16.222353568338228 153.53677200200073 H 0.0 **** 0.06
6608 H 11.552485547170164 16.347974448535133 152.29458743172984 H 0.0 **** 0.06
6609 H 10.549264771869531 14.881288042796434 152.39839282682428 H 0.0 **** 0.06
6610 H 11.753245809876319 15.226807710414015 153.6631205915466 H 0.0 **** 0.06
6611 C 91.14405909635624 10.50427825883088 82.51638995433154 C 0.0 **** -0.24
6612 H 91.54109327727578 9.616299257923004 82.02398833765602 H 0.0 **** 0.06
6613 H 90.37074043979118 10.951072792676229 81.89092684121789 H 0.0 **** 0.06
6614 H 91.94739475653529 11.223853978875695 82.67064543247335 H 0.0 **** 0.06
6615 H 90.71630871170191 10.225182499748826 83.47899181022223 H 0.0 **** 0.06
6616 C 112.43252442131597 151.10482146662892 10.218688579787411 C 0.0 **** -0.24
6617 H 111.69625847159628 151.8687245818941 9.968957396391446 H 0.0 **** 0.06
6618 H 113.24908773844311 151.55740793059977 10.781243489189393 H 0.0 **** 0.06
6619 H 112.82283862531506 150.6631919505336 9.301773982883674 H 0.0 **** 0.06
6620 H 111.96034632933942 150.33022698056368 10.823469063559301 H 0.0 **** 0.06
6621 C 121.09602164193163 28.108975112607098 13.689314513662715 C 0.0 **** -0.24
6622 H 120.18426266110615 28.598754668365387 13.345144823476595 H 0.0 **** 0.06
6623 H 121.24292952457085 27.183612881462544 13.132865069644538 H 0.0 **** 0.06
6624 H 121.0069542582946 27.884376791260223 14.752363802255992 H 0.0 **** 0.06
6625 H 121.9465418430801 28.77055048827644 13.527596950940861 H 0.0 **** 0.06
6626 C 109.2203065584234 86.43986826298448 131.89582526296527 C 0.0 **** -0.24
6627 H 109.24981676532036 86.1938599965469 132.95750896276525 H 0.0 **** 0.06
6628 H 108.34552789495169 85.97523405288621 131.4395462259959 H 0.0 **** 0.06
6629 H 110.12337166288722 86.06889245074899 131.41165015608044 H 0.0 **** 0.06
6630 H 109.16188361316577 87.521323098354 131.77535798159175 H 0.0 **** 0.06
6631 C 39.79370807515954 42.80623894990991 33.94632745988237 C 0.0 **** -0.24
6632 H 39.13219931334248 42.65160883276451 33.09490170080565 H 0.0 **** 0.06
6633 H 40.82010709159613 42.57926210715026 33.655554700325965 H 0.0 **** 0.06
6634 H 39.49297944558339 42.150644090558686 34.76340325187286 H 0.0 **** 0.06
6635 H 39.72979732177447 43.844408182140484 34.271415495311075 H 0.0 **** 0.06
6636 C 100.2583979088131 114.88011440408295 5.119197120864186 C 0.0 **** -0.24
6637 H 101.00568519719525 114.08935889796089 5.065442290095291 H 0.0 **** 0.06
6638 H 99.37678125274613 114.51145756476916 5.644722977475055 H 0.0 **** 0.06
6639 H 99.97983154193352 115.18680558846452 4.111608192811474 H 0.0 **** 0.06
6640 H 100.67143793016962 115.73380439787991 5.656758770810541 H 0.0 **** 0.06
6641 C 118.49766817852071 73.44917025563844 89.27296740658669 C 0.0 **** -0.24
6642 H 118.61530403060956 73.78529266004773 90.30370537147876 H 0.0 **** 0.06
6643 H 118.84252165656409 72.41881743988685 89.18524430366513 H 0.0 **** 0.06
6644 H 119.08492134834555 74.08806467177912 88.61327518396547 H 0.0 **** 0.06
6645 H 117.44604274009174 73.50610299452809 88.99134923304592 H 0.0 **** 0.06
6646 C 26.053520264531926 85.42962140300823 156.27889044082244 C 0.0 **** -0.24
6647 H 25.314198071493365 86.22522225610055 156.19056636564935 H 0.0 **** 0.06
6648 H 26.907235442100614 85.78880522551145 156.85323489445094 H 0.0 **** 0.06
6649 H 26.385493811954348 85.13047774793732 155.28367695645727 H 0.0 **** 0.06
6650 H 25.607361786357274 84.57419933283529 156.7850987476173 H 0.0 **** 0.06
6651 C 42.74350987489373 75.32862912458904 110.0746403869548 C 0.0 **** -0.24
6652 H 43.246822321445336 76.08662095204647 110.67461967711836 H 0.0 **** 0.06
6653 H 43.41748582155765 74.97844934319617 109.29183148784739 H 0.0 **** 0.06
6654 H 41.85110288286401 75.759228182902 109.62003791575887 H 0.0 **** 0.06
6655 H 42.45869615721887 74.4904481029674 110.71110163817082 H 0.0 **** 0.06
6656 C 121.12485135903265 124.41656481881904 60.521794078206085 C 0.0 **** -0.24
6657 H 121.85909102372494 123.74828433042597 60.0718524263346 H 0.0 **** 0.06
6658 H 121.14235860913575 125.37591336941222 60.00417061147567 H 0.0 **** 0.06
6659 H 121.36703789581341 124.56617217407785 61.57350006292421 H 0.0 **** 0.06
6660 H 120.13196744354039 123.97418431580462 60.43665757314034 H 0.0 **** 0.06
6661 C 138.43777495554497 86.64352597078253 138.90357937153277 C 0.0 **** -0.24
6662 H 138.5727022962511 87.65085172769838 139.2969323989852 H 0.0 **** 0.06
6663 H 139.39750393982808 86.25749788968068 138.55980504547838 H 0.0 **** 0.06
6664 H 137.73658373361883 86.67011010752523 138.06885823975787 H 0.0 **** 0.06
6665 H 138.04471155324046 85.99648443987915 139.68765755611687 H 0.0 **** 0.06
6666 C 120.58245369356814 151.76145761868736 121.01405953362934 C 0.0 **** -0.24
6667 H 120.18265862265392 152.76120773727837 120.84899365517003 H 0.0 **** 0.06
6668 H 121.05868915624112 151.4055608698693 120.10058568750253 H 0.0 **** 0.06
6669 H 119.771234834154 151.08693943902284 121.28890564712114 H 0.0 **** 0.06
6670 H 121.3171769509772 151.79347838768967 121.81882943953153 H 0.0 **** 0.06
6671 C 15.012289459541648 94.80367764858096 60.520176836602744 C 0.0 **** -0.24
6672 H 15.630402542869092 94.3159231634994 59.76638245779398 H 0.0 **** 0.06
6673 H 14.189693771631028 95.32619438016383 60.03266195100899 H 0.0 **** 0.06
6674 H 15.617366490229415 95.51887253103905 61.077504617888295 H 0.0 **** 0.06
6675 H 14.613847253448 94.05322200731797 61.203100207202155 H 0.0 **** 0.06
6676 C 41.72954948161794 4.648414861037736 69.06815040863202 C 0.0 **** -0.24
6677 H 42.307177159622995 5.560468050866888 68.91982841918846 H 0.0 **** 0.06
6678 H 42.18480049324944 4.054550704561933 69.8606017065836 H 0.0 **** 0.06
6679 H 41.717255986219584 4.072825078085799 68.14282211815858 H 0.0 **** 0.06
6680 H 40.70852014680486 4.9068110813903445 69.34800333676372 H 0.0 **** 0.06
6681 C 120.49191681675791 103.1695776368791 118.8217034470247 C 0.0 **** -0.24
6682 H 121.48955823970465 103.16877847270996 119.26026715311534 H 0.0 **** 0.06
6683 H 119.74579858139728 103.23583911115026 119.61424127674718 H 0.0 **** 0.06
6684 H 120.343372392959 102.24810546796704 118.25783927056395 H 0.0 **** 0.06
6685 H 120.38974199487626 104.02405547428222 118.15304949758297 H 0.0 **** 0.06
6686 C 169.8183558914504 135.40675222959175 59.10182956581568 C 0.0 **** -0.24
6687 H 169.4277780097998 136.15822234070473 59.78774265449988 H 0.0 **** 0.06
6688 H 169.61425637187588 135.711961544757 58.075233802146954 H 0.0 **** 0.06
6689 H 169.33629349944258 134.4496401437324 59.299292149119026 H 0.0 **** 0.06
6690 H 170.89464975875592 135.30807969162336 59.24507216468703 H 0.0 **** 0.06
6691 C 16.09826199154338 18.740539373384763 47.016405217287286 C 0.0 **** -0.24
6692 H 16.238563416715635 17.85310035906275 47.6328066005554 H 0.0 **** 0.06
6693 H 15.756190173739071 18.444785303823863 46.02451480339016 H 0.0 **** 0.06
6694 H 17.04480187550439 19.27588708748081 46.92975469905696 H 0.0 **** 0.06
6695 H 15.3553158950632 19.390754282236458 47.47879127625487 H 0.0 **** 0.06
6696 C 0.7958097419383705 162.70753152747216 43.244601674362485 C 0.0 **** -0.24
6697 H 1.731805767141708 163.1330805011492 42.881117520227974 H 0.0 **** 0.06
6698 H 1.0128864578963999 161.90550189066266 43.95035755015664 H 0.0 **** 0.06
6699 H 0.2271722962700835 162.30972100115102 42.40446275316441 H 0.0 **** 0.06
6700 H 0.21420137236043502 163.48287714506563 43.743846182297375 H 0.0 **** 0.06
6701 C 118.16382694728833 20.62634177397087 104.01258394880642 C 0.0 **** -0.24
6702 H 117.8555126565031 21.66682856664925 103.91350468664191 H 0.0 **** 0.06
6703 H 118.26261612387793 20.37571724303171 105.06877296040875 H 0.0 **** 0.06
6704 H 119.12243769865495 20.48264908376131 103.51392572209724 H 0.0 **** 0.06
6705 H 117.41539772491353 19.98061928493418 103.55352475446281 H 0.0 **** 0.06
6706 C 50.49658689373473 93.9652644569079 6.965692203724217 C 0.0 **** -0.24
6707 H 51.05678487682711 93.60676107346825 6.10145684177175 H 0.0 **** 0.06
6708 H 49.44007242221882 93.73004581215537 6.836052114358722 H 0.0 **** 0.06
6709 H 50.62125012155036 95.04485059032663 7.0555703086473045 H 0.0 **** 0.06
6710 H 50.86991788393989 93.47963482497249 7.866838137675359 H 0.0 **** 0.06
6711 C 50.29982709669771 94.8245162151058 38.285607357391314 C 0.0 **** -0.24
6712 H 49.51050821393615 94.99796804352803 37.55281993597336 H 0.0 **** 0.06
6713 H 49.887497142444005 94.91263204447858 39.290699289167364 H 0.0 **** 0.06
6714 H 51.088834616802686 95.5641241512186 38.14989657896754 H 0.0 **** 0.06
6715 H 50.71081482073271 93.8254504450145 38.14640313410244 H 0.0 **** 0.06
6716 C 115.38921211039832 104.18694920708015 15.342311174370934 C 0.0 **** -0.24
6717 H 116.23316163296681 104.1206564414199 14.65553853136987 H 0.0 **** 0.06
6718 H 115.42057564544587 103.34665957874608 16.037193830155047 H 0.0 **** 0.06
6719 H 114.45857061301149 104.1572625148807 14.776972120147462 H 0.0 **** 0.06
6720 H 115.4469164104641 105.12139119182962 15.899671515305045 H 0.0 **** 0.06
6721 C 11.391055320253862 82.4165515929468 14.50445149232337 C 0.0 **** -0.24
6722 H 11.697003003942228 81.57366202275159 13.884552001263472 H 0.0 **** 0.06
6723 H 10.857681269888438 83.1433583341477 13.891335448188727 H 0.0 **** 0.06
6724 H 12.273483241420145 82.88582814932005 14.938924334302243 H 0.0 **** 0.06
6725 H 10.737426628142913 82.06270636361239 15.301353778957747 H 0.0 **** 0.06
6726 C 109.72927022149486 144.0161524793078 149.58326289756565 C 0.0 **** -0.24
6727 H 110.49326812505421 143.51639486849328 148.9876567177342 H 0.0 **** 0.06
6728 H 109.9352648825714 145.086673615948 149.61447054923337 H 0.0 **** 0.06
6729 H 109.73779816323975 143.61416210925455 150.59639230763534 H 0.0 **** 0.06
6730 H 108.7509131415683 143.847547166854 149.1335598282568 H 0.0 **** 0.06
6731 C 129.67980936593102 49.54807096480479 5.593902522732776 C 0.0 **** -0.24
6732 H 129.42353702121903 49.34538614601908 6.633878743761841 H 0.0 **** 0.06
6733 H 130.45485785504326 48.85463648157908 5.268740072403119 H 0.0 **** 0.06
6734 H 130.04417642995764 50.57087763550743 5.5035625378529005 H 0.0 **** 0.06
6735 H 128.79374193285093 49.42249973582564 4.97052575540522 H 0.0 **** 0.06
6736 C 112.66906547559768 112.83042277993457 46.85698374410319 C 0.0 **** -0.24
6737 H 112.92177074452121 113.35214845688756 47.77948551709163 H 0.0 **** 0.06
6738 H 112.7238845201029 113.52651827301207 46.01968562729442 H 0.0 **** 0.06
6739 H 111.65695774660475 112.43074856468695 46.93138599181577 H 0.0 **** 0.06
6740 H 113.37141601728212 112.0122031536132 46.69747340560413 H 0.0 **** 0.06
6741 C 93.87562200793894 48.06637698354072 126.62136478426163 C 0.0 **** -0.24
6742 H 93.94929939563355 47.51154367229131 127.55694954142027 H 0.0 **** 0.06
6743 H 94.8525461639135 48.094245731461584 126.13724212282602 H 0.0 **** 0.06
6744 H 93.54224842552142 49.08375692031383 126.82732186285057 H 0.0 **** 0.06
6745 H 93.1583553653544 47.57498753412018 125.96372265776003 H 0.0 **** 0.06
6746 C 116.76850728682291 170.76090380688765 118.9038566653033 C 0.0 **** -0.24
6747 H 116.35278924656535 169.7684872623378 118.73027645083067 H 0.0 **** 0.06
6748 H 117.83261389537296 170.67548808514047 119.12413936156878 H 0.0 **** 0.06
6749 H 116.25900119175111 171.22606384920635 119.74724437921043 H 0.0 **** 0.06
6750 H 116.62976085964993 171.37326437773893 118.01239372794328 H 0.0 **** 0.06
6751 C 123.45112392104494 29.445313687277206 36.00439918360654 C 0.0 **** -0.24
6752 H 123.40988858372316 30.534343244916357 36.0400850140194 H 0.0 **** 0.06
6753 H 123.80848214692548 29.065118139831824 36.96183672857511 H 0.0 **** 0.06
6754 H 124.13139811247248 29.13314894511167 35.212205157783345 H 0.0 **** 0.06
6755 H 122.45532613850682 29.05043177753781 35.80580359588302 H 0.0 **** 0.06
6756 C 130.63020522458083 29.20765567418863 153.583191014793 C 0.0 **** -0.24
6757 H 129.99690387785296 29.99773784724374 153.1797387273022 H 0.0 **** 0.06
6758 H 130.4896272104275 29.145535880143456 154.66218736845133 H 0.0 **** 0.06
6759 H 131.67417880850343 29.4324657038908 153.3647378327493 H 0.0 **** 0.06
6760 H 130.3597327967546 28.256157926353197 153.12561820053523 H 0.0 **** 0.06
6761 C 111.04990011140728 167.0535391080092 127.01009806419717 C 0.0 **** -0.24
6762 H 111.06591890352252 167.30649927235797 125.95041286907889 H 0.0 **** 0.06
6763 H 111.45989067554672 167.88284347404863 127.58800137661382 H 0.0 **** 0.06
6764 H 111.65139325487439 166.1604932614285 127.1792201928169 H 0.0 **** 0.06
6765 H 110.0227173280631 166.86492769800984 127.32348516131475 H 0.0 **** 0.06
6766 C 140.24167849292874 30.758224535417185 136.67302165576734 C 0.0 **** -0.24
6767 H 139.9811027950371 29.977240044739574 137.38876097447073 H 0.0 **** 0.06
6768 H 139.4837677946507 30.800473587706335 135.89069590515157 H 0.0 **** 0.06
6769 H 141.21173743639562 30.535267039568453 136.2285907947854 H 0.0 **** 0.06
6770 H 140.28913023327127 31.718714485649798 137.18565169617267 H 0.0 **** 0.06
6771 C 68.7164688312129 134.44118809951505 136.94983957450395 C 0.0 **** -0.24
6772 H 69.46675407177757 135.07313568365993 136.47363319025706 H 0.0 **** 0.06
6773 H 69.19602870735034 133.55055613801727 137.3556994202932 H 0.0 **** 0.06
6774 H 67.96816180367911 134.14850672610925 136.2129091790831 H 0.0 **** 0.06
6775 H 68.23513999407307 134.99485123278606 137.75629284900384 H 0.0 **** 0.06
6776 C 115.04922657761313 146.92033146440036 83.56936378628022 C 0.0 **** -0.24
6777 H 114.42854229463734 147.49401742484264 84.25822853855718 H 0.0 **** 0.06
6778 H 115.42125522976838 147.57765415484286 82.78291113525368 H 0.0 **** 0.06
6779 H 114.45439952566616 146.1219232838335 83.12496266222591 H 0.0 **** 0.06
6780 H 115.88988712175987 146.48946894626408 84.11147675693557 H 0.0 **** 0.06
6781 C 18.242406452987154 16.485873168804403 115.86237873653334 C 0.0 **** -0.24
6782 H 18.25047390344858 15.400577974245323 115.75965360541991 H 0.0 **** 0.06
6783 H 17.616687584865645 16.76535669640208 116.71057391921636 H 0.0 **** 0.06
6784 H 17.84240645501592 16.93331800784574 114.95188418217668 H 0.0 **** 0.06
6785 H 19.259314516864464 16.842275247700854 116.02663686532381 H 0.0 **** 0.06
6786 C 161.2140193786699 164.9791833523806 172.30809611531342 C 0.0 **** -0.24
6787 H 160.87109421124302 164.96468213609174 171.27348786450858 H 0.0 **** 0.06
6788 H 162.29412325116573 165.12651192088072 172.3309461368118 H 0.0 **** 0.06
6789 H 160.96503580278485 164.0319216756046 172.7866832927356 H 0.0 **** 0.06
6790 H 160.7247526795366 165.7945305174002 172.84113109364657 H 0.0 **** 0.06
6791 C 56.70015950693811 70.1318574602825 11.769843831256594 C 0.0 **** -0.24
6792 H 57.02569723421183 69.10640049969396 11.591626468132858 H 0.0 **** 0.06
6793 H 57.32470698336439 70.81567071551774 11.19355734595348 H 0.0 **** 0.06
6794 H 56.79169579538882 70.36224685867762 12.831363036459237 H 0.0 **** 0.06
6795 H 55.66024981152668 70.24040818999498 11.461956276538956 H 0.0 **** 0.06
6796 C 159.0915853850086 147.91220569562498 135.0963608298728 C 0.0 **** -0.24
6797 H 159.79571929392324 148.73928552628868 135.00961662459557 H 0.0 **** 0.06
6798 H 158.23248949128873 148.09818647499745 134.4516542414868 H 0.0 **** 0.06
6799 H 158.75882657175032 147.82670937562244 136.13044695592106 H 0.0 **** 0.06
6800 H 159.5800297504847 146.9869813162296 134.7936876029411 H 0.0 **** 0.06
6801 C 44.987560509690226 48.55704861065719 142.23282522016376 C 0.0 **** -0.24
6802 H 44.99173152642807 48.20039098090524 143.263298970722 H 0.0 **** 0.06
6803 H 44.65295711092155 47.7564224622038 141.5733326007285 H 0.0 **** 0.06
6804 H 45.995548390980275 48.862713723108754 141.95095915616716 H 0.0 **** 0.06
6805 H 44.31241048303464 49.407644492083676 142.1451825202336 H 0.0 **** 0.06
6806 C 78.64665621763787 17.272738965687914 91.11587793545249 C 0.0 **** -0.24
6807 H 77.79190358725613 17.50493250241307 90.48000191894204 H 0.0 **** 0.06
6808 H 78.69946924604595 17.996331347413502 91.93016785409674 H 0.0 **** 0.06
6809 H 79.56151634369988 17.321297410533333 90.52572185569784 H 0.0 **** 0.06
6810 H 78.53143825268317 16.270301666949187 91.52732835696588 H 0.0 **** 0.06
6811 C 130.64294337038746 58.94581599344866 151.55855006236104 C 0.0 **** -0.24
6812 H 130.7665052611279 58.412342358956266 152.50049618510437 H 0.0 **** 0.06
6813 H 129.8334255373198 59.670319827831236 151.6554432980688 H 0.0 **** 0.06
6814 H 130.40271215150236 58.23571579612877 150.7672644907734 H 0.0 **** 0.06
6815 H 131.56808195317373 59.466270546765486 151.31198804160317 H 0.0 **** 0.06
6816 C 90.20353159042736 46.5996534036243 76.83295721526883 C 0.0 **** -0.24
6817 H 89.28114569267007 46.20348573649504 76.40913343144837 H 0.0 **** 0.06
6818 H 90.35638770898908 47.61985798909744 76.48027916277258 H 0.0 **** 0.06
6819 H 91.0425618338167 45.97783385251398 76.52122195356593 H 0.0 **** 0.06
6820 H 90.13403112623342 46.597436036390846 77.92119431328821 H 0.0 **** 0.06
6821 C 146.40788470024876 126.38720407787324 7.001696276949502 C 0.0 **** -0.24
6822 H 146.82328345790523 127.06203759935272 7.750855009105038 H 0.0 **** 0.06
6823 H 145.90129921088285 125.56007242490315 7.499158395703802 H 0.0 **** 0.06
6824 H 147.213523222387 125.99794924229889 6.3783236280798405 H 0.0 **** 0.06
6825 H 145.69674156822398 126.92897227190437 6.37836583033976 H 0.0 **** 0.06
6826 C 81.67218161550926 49.93066725898899 122.24849417923787 C 0.0 **** -0.24
6827 H 82.64758955845474 49.61149497910418 122.61609939495753 H 0.0 **** 0.06
6828 H 80.9882310371358 50.04753722536864 123.09004765098001 H 0.0 **** 0.06
6829 H 81.27903620336117 49.17991229628052 121.56199662335251 H 0.0 **** 0.06
6830 H 81.77433689591287 50.88184347458406 121.7269481459054 H 0.0 **** 0.06
6831 C 19.54559374376487 59.42767167705972 19.01710270649164 C 0.0 **** -0.24
6832 H 20.136173302698467 60.06048071076981 18.354858274298294 H 0.0 **** 0.06
6833 H 19.43886677161092 58.437318969518486 18.57291345409621 H 0.0 **** 0.06
6834 H 18.559500719643722 59.87092481816251 19.159206232344246 H 0.0 **** 0.06
6835 H 20.04716388237736 59.34235201204646 19.98080137354509 H 0.0 **** 0.06
6836 C 144.9611499409051 43.07263956745075 172.50739506404054 C 0.0 **** -0.24
6837 H 145.55463330717828 43.04222298016711 173.4210823773781 H 0.0 **** 0.06
6838 H 144.83447465026723 44.10821051773388 172.19115247872844 H 0.0 **** 0.06
6839 H 143.98385432190636 42.62726402827573 172.69455301377744 H 0.0 **** 0.06
6840 H 145.47134829221642 42.51248155224533 171.7236713685224 H 0.0 **** 0.06
6841 C 59.617270405389306 13.45686558830377 40.52026122281916 C 0.0 **** -0.24
6842 H 58.922930133210656 13.94406550622162 39.835770895242945 H 0.0 **** 0.06
6843 H 59.05675467761047 12.872560058840378 41.25053608492806 H 0.0 **** 0.06
6844 H 60.21011542573879 14.21147018216351 41.03585683520987 H 0.0 **** 0.06
6845 H 60.277871303031674 12.797501854760611 39.958149953951875 H 0.0 **** 0.06
6846 C 6.035836276872914 29.793768268552327 4.061988180716298 C 0.0 **** -0.24
6847 H 6.800874619317966 29.037513527512317 3.885922030923666 H 0.0 **** 0.06
6848 H 5.987710299278888 30.467040877982612 3.2055215451309778 H 0.0 **** 0.06
6849 H 6.286723656416257 30.361390577104885 4.958176569373904 H 0.0 **** 0.06
6850 H 5.069855367761988 29.30819087795868 4.197430574973737 H 0.0 **** 0.06
6851 C 124.50990363285888 92.76744830196262 28.756067162866884 C 0.0 **** -0.24
6852 H 124.51649544823147 92.27431639207867 27.78377931176749 H 0.0 **** 0.06
6853 H 124.70339470120837 92.03257435163684 29.53684859231339 H 0.0 **** 0.06
6854 H 123.53628304365202 93.22817501856599 28.92264753921711 H 0.0 **** 0.06
6855 H 125.2829057850202 93.53577580655443 28.778421371211834 H 0.0 **** 0.06
6856 C 117.41651938922536 114.03848859531172 97.5531318653895 C 0.0 **** -0.24
6857 H 117.67516007134373 113.2432414246237 96.85338466531363 H 0.0 **** 0.06
6858 H 118.23537998804511 114.75569848439488 97.60700646028607 H 0.0 **** 0.06
6859 H 117.24159098571533 113.61062077661973 98.5407944583838 H 0.0 **** 0.06
6860 H 116.5121080646237 114.54208124723618 97.21081943532744 H 0.0 **** 0.06
6861 C 10.894332016650466 41.41110936741853 88.2037969882273 C 0.0 **** -0.24
6862 H 9.907936969509173 41.87598136829607 88.19804833159503 H 0.0 **** 0.06
6863 H 10.792148883998905 40.34341681760884 88.0088959372368 H 0.0 **** 0.06
6864 H 11.3608995304932 41.56126641367467 89.17654297553759 H 0.0 **** 0.06
6865 H 11.513278715691243 41.86422188705657 87.42960049864729 H 0.0 **** 0.06
6866 C 167.95631966166854 98.49832627671091 25.503191677333405 C 0.0 **** -0.24
6867 H 168.5614183702695 99.20641389577852 24.93638864185874 H 0.0 **** 0.06
6868 H 168.3128871338978 98.46032758338765 26.533608090552377 H 0.0 **** 0.06
6869 H 168.03651996630526 97.50906781350696 25.053442004944884 H 0.0 **** 0.06
6870 H 166.91472521034473 98.8199522330363 25.491028635132807 H 0.0 **** 0.06
6871 C 30.689937005156963 89.54738055071462 169.19629641958474 C 0.0 **** -0.24
6872 H 30.728922116379692 90.37869027416156 169.89979231371382 H 0.0 **** 0.06
6873 H 31.16306922183574 89.8429060084683 168.25911776360516 H 0.0 **** 0.06
6874 H 29.650779992092808 89.27702123790019 169.01020849863212 H 0.0 **** 0.06
6875 H 31.219221836536775 88.69182983158724 169.6163889484745 H 0.0 **** 0.06
6876 C 23.590256764360305 14.095750405860173 6.2729587526374075 C 0.0 **** -0.24
6877 H 23.645791715204325 13.530167474875611 7.20260975046412 H 0.0 **** 0.06
6878 H 24.49743636936347 13.929613522766005 5.69256417418751 H 0.0 **** 0.06
6879 H 23.491432662448887 15.15692563046855 6.4985958227117635 H 0.0 **** 0.06
6880 H 22.725171878228252 13.765147381157021 5.697558906362644 H 0.0 **** 0.06
6881 C 84.60290561315583 5.153086523452771 84.3457547958846 C 0.0 **** -0.24
6882 H 84.28597202285388 5.804298159589649 85.15940868183714 H 0.0 **** 0.06
6883 H 85.42910787793508 5.618179777273326 83.8083236298607 H 0.0 **** 0.06
6884 H 83.76795292960308 4.994640131800168 83.66189589755612 H 0.0 **** 0.06
6885 H 84.92632368217177 4.194746238042967 84.75176813101172 H 0.0 **** 0.06
6886 C 68.24629802593506 123.90997688368464 97.39297424262378 C 0.0 **** -0.24
6887 H 68.55319433207 123.29577039699075 96.54669578928417 H 0.0 **** 0.06
6888 H 68.02623457831658 124.9204292800423 97.04844816263977 H 0.0 **** 0.06
6889 H 69.05158826537462 123.94312869603993 98.1280462278383 H 0.0 **** 0.06
6890 H 67.35605550043147 123.47939646361579 97.85045747517853 H 0.0 **** 0.06
6891 C 118.12233491866297 76.72217392858317 42.08418408794691 C 0.0 **** -0.24
6892 H 117.99813278071599 77.2372512356971 41.131623653309816 H 0.0 **** 0.06
6893 H 118.73919803168855 77.32882186233857 42.74677397190635 H 0.0 **** 0.06
6894 H 118.60750962394368 75.76039937486186 41.91578748282842 H 0.0 **** 0.06
6895 H 117.14561087196293 76.56116563943738 42.540641815500294 H 0.0 **** 0.06
6896 C 48.236680577051175 37.005957081310555 158.14972569318127 C 0.0 **** -0.24
6897 H 48.59516664963256 36.0886688460796 158.6170630667799 H 0.0 **** 0.06
6898 H 48.33020507192823 36.92349283079608 157.06755289710935 H 0.0 **** 0.06
6899 H 48.831362401630344 37.848352730581155 158.50296397150663 H 0.0 **** 0.06
6900 H 47.19094703866031 37.16299143247514 158.41492519682748 H 0.0 **** 0.06
6901 C 105.07012122966077 34.125210959989715 104.12926913865803 C 0.0 **** -0.24
6902 H 105.79046239820002 34.927340788500416 103.97133719058871 H 0.0 **** 0.06
6903 H 105.0364059906666 33.87040884007624 105.1884354813763 H 0.0 **** 0.06
6904 H 105.37084276991672 33.24943326887501 103.55333580537328 H 0.0 **** 0.06
6905 H 104.08366671309747 34.45303908735245 103.80177351622768 H 0.0 **** 0.06
6906 C 46.66490548717802 133.976103037738 122.66009608552238 C 0.0 **** -0.24
6907 H 47.418089692705934 133.34681605919656 123.134974654877 H 0.0 **** 0.06
6908 H 46.69141597479974 133.8214590961881 121.5807807143095 H 0.0 **** 0.06
6909 H 46.872270563741466 135.0227939129675 122.88271037576132 H 0.0 **** 0.06
6910 H 45.67921000548709 133.71136751420119 123.04143278309866 H 0.0 **** 0.06
6911 C 157.0033373545985 166.3079266161738 12.643131209592276 C 0.0 **** -0.24
6912 H 156.28391808517463 166.4399537809248 11.834269070714996 H 0.0 **** 0.06
6913 H 158.01507587466907 166.38806794096263 12.245693520061067 H 0.0 **** 0.06
6914 H 156.86531400738164 165.32545698863692 13.093894067798985 H 0.0 **** 0.06
6915 H 156.84596210871464 167.07871911919707 13.39753834896058 H 0.0 **** 0.06
6916 C 115.29940993498172 34.11697338250261 94.99884151706615 C 0.0 **** -0.24
6917 H 116.09033952422428 33.42447694479796 94.7094744929561 H 0.0 **** 0.06
6918 H 115.71476374033819 35.119075718674424 95.10418999363884 H 0.0 **** 0.06
6919 H 114.8699022579296 33.80017862325076 95.94905328857143 H 0.0 **** 0.06
6920 H 114.52337105624207 34.12341489203607 94.23359623325632 H 0.0 **** 0.06
6921 C 38.420844525619046 13.72579968314409 12.670067245170735 C 0.0 **** -0.24
6922 H 38.63571941020622 14.752799846985113 12.375595482816209 H 0.0 **** 0.06
6923 H 37.39155130634599 13.48035368623087 12.408244938643456 H 0.0 **** 0.06
6924 H 38.55761998983621 13.621527519671929 13.747355985480233 H 0.0 **** 0.06
6925 H 39.10039772720465 13.04873261751277 12.151375764604019 H 0.0 **** 0.06
6926 C 167.99558530525576 25.28095226416238 6.591466208773738 C 0.0 **** -0.24
6927 H 167.68403071029056 25.97646641998773 7.371886625967534 H 0.0 **** 0.06
6928 H 168.91850014386145 25.637962320172164 6.134645455829741 H 0.0 **** 0.06
6929 H 167.21553996049246 25.214292769648637 5.832856977816277 H 0.0 **** 0.06
6930 H 168.16361264376079 24.296672971493848 7.028723885902423 H 0.0 **** 0.06
6931 C 149.00555416146594 11.183251515250412 24.23117980861511 C 0.0 **** -0.24
6932 H 148.7356287744194 11.697926027233926 23.3083381900164 H 0.0 **** 0.06
6933 H 148.33119672566337 11.493219794841913 25.030257360957847 H 0.0 **** 0.06
6934 H 150.03079008086743 11.43555866350276 24.50124014685855 H 0.0 **** 0.06
6935 H 148.92323178598406 10.106755155905873 24.08290376200651 H 0.0 **** 0.06
6936 C 113.75189934232125 15.96282152234798 53.546914777347325 C 0.0 **** -0.24
6937 H 112.70969033623885 15.981150514674368 53.22836553767914 H 0.0 **** 0.06
6938 H 114.29227271095971 16.777188516484102 53.06330208768814 H 0.0 **** 0.06
6939 H 114.20054270275384 15.01061814028111 53.26448420323972 H 0.0 **** 0.06
6940 H 113.80318175347335 16.083443693023213 54.628659465469795 H 0.0 **** 0.06
6941 C 46.05916673008899 118.95483102618283 46.66742575843273 C 0.0 **** -0.24
6942 H 45.608518938546695 119.5788093805204 47.4385332325339 H 0.0 **** 0.06
6943 H 47.02572347246657 118.58823872186005 47.01556564304295 H 0.0 **** 0.06
6944 H 46.19949360367856 119.54297928650794 45.75996490243307 H 0.0 **** 0.06
6945 H 45.40509690906369 118.10930530069419 46.455083832250324 H 0.0 **** 0.06
6946 C 92.60549661835577 49.6352418952695 157.22513441273026 C 0.0 **** -0.24
6947 H 91.64598584207485 49.69561620279015 157.73864896504352 H 0.0 **** 0.06
6948 H 93.02031063643864 50.636182848885525 157.11121035861413 H 0.0 **** 0.06
6949 H 92.46333551472748 49.18639632661838 156.24215269561435 H 0.0 **** 0.06
6950 H 93.29134632987316 49.02084439468338 157.80965140093002 H 0.0 **** 0.06
6951 C 33.46243204229336 38.33496017340093 91.23925910215104 C 0.0 **** -0.24
6952 H 32.98252658483176 37.469645971379705 90.7804919400801 H 0.0 **** 0.06
6953 H 34.534569902172166 38.29824292066229 91.04792060830017 H 0.0 **** 0.06
6954 H 33.283236561508375 38.320968074741714 92.31451367497633 H 0.0 **** 0.06
6955 H 33.0471173408323 39.248288562677104 90.8128659182588 H 0.0 **** 0.06
6956 C 102.58214242576534 60.41378869545346 64.83789495033318 C 0.0 **** -0.24
6957 H 101.89744985501133 61.24968903624767 64.6914131643394 H 0.0 **** 0.06
6958 H 102.07966207352226 59.628130955891635 65.40337849242962 H 0.0 **** 0.06
6959 H 103.45844258334199 60.754532689043685 65.38945070728374 H 0.0 **** 0.06
6960 H 102.8914951256769 60.02377676274284 63.86899261165382 H 0.0 **** 0.06
6961 C 13.542330274771103 89.5403742425222 58.20078467807937 C 0.0 **** -0.24
6962 H 13.859775549738515 88.50493160271918 58.321242982580586 H 0.0 **** 0.06
6963 H 14.347631264588216 90.11606791169226 57.74314690061192 H 0.0 **** 0.06
6964 H 13.301292604933963 89.96293024868731 59.176123821060315 H 0.0 **** 0.06
6965 H 12.66025715475044 89.57732129420617 57.56128087107899 H 0.0 **** 0.06
6966 C 166.89181800310755 90.2834752676614 157.90302462212102 C 0.0 **** -0.24
6967 H 166.01203977462237 90.8797676502436 158.14398070752978 H 0.0 **** 0.06
6968 H 166.57872573979182 89.30931945943689 157.52655297816779 H 0.0 **** 0.06
6969 H 167.49657518664995 90.15035526465391 158.80041473638013 H 0.0 **** 0.06
6970 H 167.48055297362274 90.79528689983113 157.1421132231079 H 0.0 **** 0.06
6971 C 122.4837817131226 53.03514265019476 124.6110357852188 C 0.0 **** -0.24
6972 H 121.85666492896945 52.32103178573601 125.14534694410656 H 0.0 **** 0.06
6973 H 122.2087673681977 53.042735039776176 123.55640616017314 H 0.0 **** 0.06
6974 H 123.52978688504072 52.74561429412731 124.71234570366747 H 0.0 **** 0.06
6975 H 122.33927558899285 54.03100159270224 125.03129542326928 H 0.0 **** 0.06
6976 C 105.90245279437903 2.46499073037927 4.866601787990078 C 0.0 **** -0.24
6977 H 106.941748562311 2.4468727997687694 5.194600615462491 H 0.0 **** 0.06
6978 H 105.78313202840386 1.8097182290040195 4.003550978822091 H 0.0 **** 0.06
6979 H 105.62578809113776 3.4825617164995393 4.592060179727838 H 0.0 **** 0.06
6980 H 105.26043858937766 2.1190513026500213 5.676671449813938 H 0.0 **** 0.06
6981 C 49.61311654042669 26.92226066284124 158.05721509252714 C 0.0 **** -0.24
6982 H 49.52083815889361 27.97663421900586 158.3185181740896 H 0.0 **** 0.06
6983 H 48.61971746290426 26.494260072181987 157.9192151678116 H 0.0 **** 0.06
6984 H 50.12781661542981 26.393340549261097 158.85964736027617 H 0.0 **** 0.06
6985 H 50.18281313940824 26.824226935135243 157.13321814789646 H 0.0 **** 0.06
6986 C 83.1399625430453 4.342024551440886 144.1113169535355 C 0.0 **** -0.24
6987 H 83.94075051794277 4.61240310886231 143.42342726415103 H 0.0 **** 0.06
6988 H 82.60494204685511 3.4757225879037605 143.72230775017738 H 0.0 **** 0.06
6989 H 82.44986982223939 5.180507240798306 144.21259894347904 H 0.0 **** 0.06
6990 H 83.56378052257999 4.099922020125518 145.0862030415147 H 0.0 **** 0.06
6991 C 144.80172765226268 26.56670627345909 30.04844841437793 C 0.0 **** -0.24
6992 H 145.43014653365657 25.808337262146665 30.516470170774454 H 0.0 **** 0.06
6993 H 143.75257653161628 26.33073655247415 30.229626319219506 H 0.0 **** 0.06
6994 H 144.9910476427811 26.58254063049384 28.975716218402 H 0.0 **** 0.06
6995 H 145.03379151915794 27.54288825386169 30.47345814217715 H 0.0 **** 0.06
6996 C 123.17686931123791 99.37090806295797 151.8696587498886 C 0.0 **** -0.24
6997 H 124.12953775760613 99.61461857373828 152.34068446444155 H 0.0 **** 0.06
6998 H 122.6716842796776 98.59964401846744 152.45098571447295 H 0.0 **** 0.06
6999 H 123.35522612250537 99.00705636816517 150.8583902679938 H 0.0 **** 0.06
7000 H 122.55366803626771 100.2640476490082 151.83058162315066 H 0.0 **** 0.06
7001 C 156.48509654938266 62.750998138431655 164.40069451214833 C 0.0 **** -0.24
7002 H 156.0282363633981 63.7023139012892 164.67259203367712 H 0.0 **** 0.06
7003 H 157.15573734481183 62.899064209503706 163.5530715982096 H 0.0 **** 0.06
7004 H 155.70745168947968 62.03833950750145 164.12832473364523 H 0.0 **** 0.06
7005 H 157.05081778043018 62.36494636869325 165.24847201626255 H 0.0 **** 0.06
7006 C 44.5251055754709 55.86305867582526 12.74786406433629 C 0.0 **** -0.24
7007 H 44.92374396634351 55.75630232628863 11.740209543961527 H 0.0 **** 0.06
7008 H 43.88683346998994 55.009679235957634 12.979666721101545 H 0.0 **** 0.06
7009 H 43.94111319465051 56.781599825853704 12.813165410046004 H 0.0 **** 0.06
7010 H 45.34831560199534 55.9056384764381 13.462000211197697 H 0.0 **** 0.06
7011 C 27.313885274510433 73.99278967946785 2.4072567939968934 C 0.0 **** -0.24
7012 H 26.705523672119412 74.70828178456567 2.9612300930912028 H 0.0 **** 0.06
7013 H 28.31205070522556 74.40582155595798 2.2576150183607098 H 0.0 **** 0.06
7014 H 26.85278946126553 73.79596738530114 1.439935342046013 H 0.0 **** 0.06
7015 H 27.38540355369136 73.06364239646476 2.9720971517087307 H 0.0 **** 0.06
7016 C 163.62472091732616 119.78523626501993 90.11892543937756 C 0.0 **** -0.24
7017 H 163.89280494938072 119.8164319569106 89.06291835486962 H 0.0 **** 0.06
7018 H 164.53096490926492 119.72801253875735 90.72182050103174 H 0.0 **** 0.06
7019 H 163.00389577062862 118.9092595382057 90.30973195404107 H 0.0 **** 0.06
7020 H 163.07005778363657 120.68647342410199 90.37921482264608 H 0.0 **** 0.06
7021 C 94.09381484513435 131.51387225542643 165.05788258465117 C 0.0 **** -0.24
7022 H 94.6257236540313 132.36158504972235 164.62616483259248 H 0.0 **** 0.06
7023 H 93.13983408480576 131.38402281974453 164.54587277449667 H 0.0 **** 0.06
7024 H 93.91571653506534 131.6983527779585 166.1175297560193 H 0.0 **** 0.06
7025 H 94.69419607365825 130.61055094519494 164.94195059689145 H 0.0 **** 0.06
7026 C 79.53014652170265 119.40816421496629 134.37257849342188 C 0.0 **** -0.24
7027 H 78.60740419098033 119.81274733722643 134.7883407697396 H 0.0 **** 0.06
7028 H 80.04552400013469 118.82298287917493 135.1349662406006 H 0.0 **** 0.06
7029 H 80.17178076544837 120.22657468399333 134.0468224917521 H 0.0 **** 0.06
7030 H 79.29409321784533 118.76932638917805 133.5210596868704 H 0.0 **** 0.06
7031 C 47.701908403894905 167.8252073500063 68.9773283984999 C 0.0 **** -0.24
7032 H 48.66241415592428 167.704189610399 69.47725095763343 H 0.0 **** 0.06
7033 H 47.00642781407359 168.33459444418253 69.64507367105081 H 0.0 **** 0.06
7034 H 47.303616929245166 166.8453500116431 68.71514398670419 H 0.0 **** 0.06
7035 H 47.83601205838983 168.41684499760896 68.07237079888668 H 0.0 **** 0.06
7036 C 18.36553237020692 10.795998663431625 107.53787011356786 C 0.0 **** -0.24
7037 H 19.351011479922278 10.351170601168299 107.39720695350735 H 0.0 **** 0.06
7038 H 17.599678664433952 10.033682227596437 107.39360317928828 H 0.0 **** 0.06
7039 H 18.22234617284056 11.597267881735739 106.81281181131993 H 0.0 **** 0.06
7040 H 18.29011882153577 11.200665887032173 108.54628092790631 H 0.0 **** 0.06
7041 C 1.0824122811463042 151.18659331642516 78.42819918599739 C 0.0 **** -0.24
7042 H 0.5221332839207662 150.947409122459 77.52409489805396 H 0.0 **** 0.06
7043 H 1.902412909065049 151.8608875027661 78.17929251402055 H 0.0 **** 0.06
7044 H 1.4837692393280122 150.26951135280055 78.85963800402872 H 0.0 **** 0.06
7045 H 0.42228499348260584 151.66826089113744 79.14877011631161 H 0.0 **** 0.06
7046 C 80.19774543578941 59.736138130821075 135.83262631109133 C 0.0 **** -0.24
7047 H 79.154202137857 59.914346253481085 135.5722603237752 H 0.0 **** 0.06
7048 H 80.77636067821443 59.57890242786057 134.9220745363358 H 0.0 **** 0.06
7049 H 80.26850471650626 58.85274557577111 136.4662688515565 H 0.0 **** 0.06
7050 H 80.59085985211327 60.600337730999314 136.36858928243902 H 0.0 **** 0.06
7051 C 136.15906026283855 113.79777185771118 10.191523207774047 C 0.0 **** -0.24
7052 H 136.7259682096037 113.86870258739549 9.262950963878573 H 0.0 **** 0.06
7053 H 135.11047951940543 114.02255049895382 9.994101836970074 H 0.0 **** 0.06
7054 H 136.55446522373416 114.5131658916003 10.912652516451416 H 0.0 **** 0.06
7055 H 136.24581836424414 112.78932342992684 10.594461106824326 H 0.0 **** 0.06
7056 C 56.41293914910493 19.74565325267102 65.19368523505594 C 0.0 **** -0.24
7057 H 56.45651201300058 19.631649712348406 64.11073751180353 H 0.0 **** 0.06
7058 H 56.26163473141767 18.769267401436252 65.65459178004045 H 0.0 **** 0.06
7059 H 55.58470930623268 20.404595989888037 65.45614286601034 H 0.0 **** 0.06
7060 H 57.34786002824299 20.17586985407769 65.55142366431073 H 0.0 **** 0.06
7061 C 55.937229711387374 41.57977140668663 146.16166742719912 C 0.0 **** -0.24
7062 H 55.44907875422727 41.974284603485216 145.2694980398341 H 0.0 **** 0.06
7063 H 55.18312471402366 41.33994259235254 146.91101445422385 H 0.0 **** 0.06
7064 H 56.62187951343044 42.328135250078674 146.56058268961422 H 0.0 **** 0.06
7065 H 56.492956620031464 40.6785429186416 145.90289919562187 H 0.0 **** 0.06
7066 C 111.20837227166612 70.11689740220874 6.590640575417126 C 0.0 **** -0.24
7067 H 111.42778203206865 70.14465510044226 7.657380945496556 H 0.0 **** 0.06
7068 H 110.96050406438331 69.09750582841372 6.297084245246253 H 0.0 **** 0.06
7069 H 112.0819578491342 70.45442524579056 6.032553314465815 H 0.0 **** 0.06
7070 H 110.36426096873146 70.77315389714067 6.3761301162205655 H 0.0 **** 0.06
7071 C 89.93263181900181 145.31677264051507 147.295819149895 C 0.0 **** -0.24
7072 H 90.42778416440666 144.35279460618352 147.17226457218678 H 0.0 **** 0.06
7073 H 89.48423468790537 145.3704229353649 148.28712576366192 H 0.0 **** 0.06
7074 H 89.15629182100508 145.42572343170758 146.53780849891191 H 0.0 **** 0.06
7075 H 90.66467254087354 146.11717915074695 147.18342691426477 H 0.0 **** 0.06
7076 C 4.182893559880114 14.453012176325558 134.6931529591049 C 0.0 **** -0.24
7077 H 3.8630446855906087 15.428192320996345 134.3253560304998 H 0.0 **** 0.06
7078 H 3.8675364678746007 14.334702934279335 135.73036077085766 H 0.0 **** 0.06
7079 H 5.268681136072132 14.380965411817698 134.63323820873433 H 0.0 **** 0.06
7080 H 3.7328535049447282 13.669307665477874 134.08433003421993 H 0.0 **** 0.06
7081 C 142.35622242088485 34.71598049264334 20.52174999082112 C 0.0 **** -0.24
7082 H 141.61560375374853 35.435570471084844 20.87075778251699 H 0.0 **** 0.06
7083 H 142.58440557749748 34.01262320644442 21.323644751883478 H 0.0 **** 0.06
7084 H 143.2651959864036 35.241296151786 20.23019437846517 H 0.0 **** 0.06
7085 H 141.95982456635346 34.17242716450366 19.664393184961853 H 0.0 **** 0.06
7086 C 166.52277705047916 17.11679581024699 111.20109959238357 C 0.0 **** -0.24
7087 H 167.13109022971156 17.234700710377254 110.30511038622751 H 0.0 **** 0.06
7088 H 165.73275330552514 16.38995359911567 111.01180597864754 H 0.0 **** 0.06
7089 H 166.07768295312457 18.075979943809394 111.46703802279978 H 0.0 **** 0.06
7090 H 167.14867378155284 16.767283243919067 112.02259728045749 H 0.0 **** 0.06
7091 C 26.51297588679156 127.7607378757711 3.002156847552783 C 0.0 **** -0.24
7092 H 26.753538547769253 128.65664999514314 3.574692673307311 H 0.0 **** 0.06
7093 H 26.4012788790266 128.02170517415755 1.9489621456863517 H 0.0 **** 0.06
7094 H 25.58082087860808 127.33355448482308 3.371572020000656 H 0.0 **** 0.06
7095 H 27.31568153588698 127.03262655716571 3.113015751072794 H 0.0 **** 0.06
7096 C 97.58551204853478 11.548009473278526 28.5259926194675 C 0.0 **** -0.24
7097 H 97.89857664008713 12.556911541413811 28.259372417547695 H 0.0 **** 0.06
7098 H 98.34606542470436 11.08670009713802 29.15562377720113 H 0.0 **** 0.06
7099 H 97.45626709576965 10.956281968107128 27.61929062287936 H 0.0 **** 0.06
7100 H 96.64070820879618 11.59293303580965 29.068591726028103 H 0.0 **** 0.06
7101 C 81.45952963016597 14.919571510367355 161.7171332476184 C 0.0 **** -0.24
7102 H 82.08521777796243 15.436073864209384 162.4459836326542 H 0.0 **** 0.06
7103 H 80.55780158646938 14.55271457073809 162.20840275852981 H 0.0 **** 0.06
7104 H 82.01209265361533 14.080450426086067 161.2951959552445 H 0.0 **** 0.06
7105 H 81.18399090662479 15.610434861494525 160.92071287490933 H 0.0 **** 0.06
7106 C 26.300264677840403 134.16937142857319 90.24203707011232 C 0.0 **** -0.24
7107 H 26.25042152663289 135.13432982557106 90.74874527118673 H 0.0 **** 0.06
7108 H 26.684092046677335 134.3097856412095 89.2316789266027 H 0.0 **** 0.06
7109 H 25.302872958174362 133.73268478307693 90.19549994944734 H 0.0 **** 0.06
7110 H 26.963452299305004 133.50346194135017 90.793339068127 H 0.0 **** 0.06
7111 C 9.959371232510222 134.6996412948319 18.20633655030224 C 0.0 **** -0.24
7112 H 10.306269738783882 135.72832980862967 18.11006846281964 H 0.0 **** 0.06
7113 H 10.61389198216844 134.04143253656713 17.634366251312883 H 0.0 **** 0.06
7114 H 8.94136872280557 134.62274486701568 17.824995492491524 H 0.0 **** 0.06
7115 H 9.977149868901357 134.40790691564683 19.25630662149277 H 0.0 **** 0.06
7116 C 133.74775024142397 59.323801153299996 108.71974911225414 C 0.0 **** -0.24
7117 H 133.00983742191173 58.54681071428371 108.92184003368413 H 0.0 **** 0.06
7118 H 133.2398244730311 60.27471362728187 108.56067664582082 H 0.0 **** 0.06
7119 H 134.31478547555992 59.061133834481836 107.82661916049341 H 0.0 **** 0.06
7120 H 134.4256259021291 59.41016531482569 109.56828901955893 H 0.0 **** 0.06
7121 C 64.00387562314671 74.65244017810959 97.61387909444295 C 0.0 **** -0.24
7122 H 63.54297922783144 75.62735402927473 97.7718559068428 H 0.0 **** 0.06
7123 H 64.5001746345095 74.63832513662392 96.64360581465746 H 0.0 **** 0.06
7124 H 63.23587741056852 73.87912123786886 97.64165968984906 H 0.0 **** 0.06
7125 H 64.73529613383988 74.46492898531721 98.39966708116435 H 0.0 **** 0.06
7126 C 105.59238856453902 150.99845228051322 81.27278684915358 C 0.0 **** -0.24
7127 H 106.56114269156308 150.5511152414782 81.49853945841481 H 0.0 **** 0.06
7128 H 104.9848365722608 151.02344859953473 82.17823479741325 H 0.0 **** 0.06
7129 H 105.08736078194278 150.40414468594832 80.51140875474766 H 0.0 **** 0.06
7130 H 105.73881260285935 152.01323012504497 80.90490090348412 H 0.0 **** 0.06
7131 C 45.81745849811881 155.60262619573115 69.82325303547321 C 0.0 **** -0.24
7132 H 45.51533933511081 155.98298574213987 70.79821906938724 H 0.0 **** 0.06
7133 H 45.31690892622754 154.65292607436234 69.63162051914333 H 0.0 **** 0.06
7134 H 46.89764563490536 155.45446513234123 69.81047584302115 H 0.0 **** 0.06
7135 H 45.54075997270178 156.32198166221434 69.05175264281922 H 0.0 **** 0.06
7136 C 151.42035269200449 54.60939777682498 119.21613711349838 C 0.0 **** -0.24
7137 H 150.7591881035135 54.279785569251885 120.01724781087006 H 0.0 **** 0.06
7138 H 152.3800463374126 54.908959468373666 119.63747912403821 H 0.0 **** 0.06
7139 H 150.96936011716386 55.45761274496061 118.69924804964867 H 0.0 **** 0.06
7140 H 151.57177133995395 53.79337024369889 118.50998866897541 H 0.0 **** 0.06
7141 C 29.04505761246719 44.64461818943582 82.5375012105086 C 0.0 **** -0.24
7142 H 29.361117464480856 44.84356028856435 83.56253411424666 H 0.0 **** 0.06
7143 H 28.47468721052786 45.49454138318582 82.16311191106138 H 0.0 **** 0.06
7144 H 28.42314004424071 43.75028346438124 82.51664231440145 H 0.0 **** 0.06
7145 H 29.923815115983928 44.49141890160857 81.91085185015612 H 0.0 **** 0.06
7146 C 108.75164956622862 140.25447677046043 129.6348048943577 C 0.0 **** -0.24
7147 H 109.54069971252198 139.5173908809087 129.78130548236828 H 0.0 **** 0.06
7148 H 107.84338663957149 139.91799111173108 130.1335613575547 H 0.0 **** 0.06
7149 H 108.55918726001977 140.37211220219865 128.5683709524058 H 0.0 **** 0.06
7150 H 109.06476577646941 141.2100120964198 130.0543196572066 H 0.0 **** 0.06
7151 C 57.213683050057966 169.43489932666438 165.61176898814313 C 0.0 **** -0.24
7152 H 57.02214092862209 168.95809773677593 164.6500278228793 H 0.0 **** 0.06
7153 H 57.134720175138426 168.6929472350207 166.40608009262235 H 0.0 **** 0.06
7154 H 56.48096974318304 170.22458527763962 165.77772528152593 H 0.0 **** 0.06
7155 H 58.21577862325336 169.86235530557337 165.6117792318911 H 0.0 **** 0.06
7156 C 13.078206833691212 102.75076825010689 135.0218476956941 C 0.0 **** -0.24
7157 H 12.36258943870753 103.51393213239874 134.71410129129768 H 0.0 **** 0.06
7158 H 12.659638727542323 101.76234133058722 134.83112233510823 H 0.0 **** 0.06
7159 H 13.288542057127238 102.85756874651187 136.08512511941808 H 0.0 **** 0.06
7160 H 14.001212599136359 102.87031314384694 134.4541932493965 H 0.0 **** 0.06
7161 C 83.36842642525272 36.74005885318559 33.03184902457508 C 0.0 **** -0.24
7162 H 82.28077199393122 36.79104596463719 33.073793231876834 H 0.0 **** 0.06
7163 H 83.6866906032661 36.646008554444165 31.992749082999524 H 0.0 **** 0.06
7164 H 83.71388620607789 35.874996534784486 33.59793021196052 H 0.0 **** 0.06
7165 H 83.79168273071694 37.64809917294042 33.46104252018432 H 0.0 **** 0.06
7166 C 91.6097999898455 35.652105716081394 18.14510497287253 C 0.0 **** -0.24
7167 H 91.03471785322118 35.737701545235154 17.2233815535576 H 0.0 **** 0.06
7168 H 92.01846171556167 34.643897999771696 18.22514264990062 H 0.0 **** 0.06
7169 H 90.96064640572072 35.84994284926978 18.998404037396625 H 0.0 **** 0.06
7170 H 92.42459100548905 36.37538097901364 18.133119422605034 H 0.0 **** 0.06
7171 C 14.113908126531015 52.47856462242663 45.41891803587407 C 0.0 **** -0.24
7172 H 14.514619400759074 52.174491136403844 44.45234938751304 H 0.0 **** 0.06
7173 H 13.392415466329538 53.28348092896445 45.27565153624397 H 0.0 **** 0.06
7174 H 14.926344194793643 52.827985742254185 46.054936636964186 H 0.0 **** 0.06
7175 H 13.621330652696685 51.6288965618281 45.89184383086905 H 0.0 **** 0.06
7176 C 144.54843183636592 144.72368330763163 152.35349850187998 C 0.0 **** -0.24
7177 H 143.4934543147484 144.92428947285626 152.17152671565438 H 0.0 **** 0.06
7178 H 144.75284072309964 144.79616605311122 153.4220968675073 H 0.0 **** 0.06
7179 H 145.15513763155542 145.45333840861085 151.81786273297277 H 0.0 **** 0.06
7180 H 144.79396069044031 143.72011623845512 152.00375152099951 H 0.0 **** 0.06
7181 C 170.7171651605356 5.642518740973678 149.14669079106773 C 0.0 **** -0.24
7182 H 170.45626311700056 6.698906744315764 149.082055677506 H 0.0 **** 0.06
7183 H 170.95614972867924 5.266430262925915 148.1518309901585 H 0.0 **** 0.06
7184 H 169.87521803508454 5.084216094283477 149.55410990546693 H 0.0 **** 0.06
7185 H 171.583518538301 5.522629360974676 149.7981626488347 H 0.0 **** 0.06
7186 C 130.35816519791177 125.24234821865625 160.5041286501114 C 0.0 **** -0.24
7187 H 131.32712123054404 124.83659070967136 160.7935024775313 H 0.0 **** 0.06
7188 H 130.24002952859558 126.23848383296294 160.93022016376523 H 0.0 **** 0.06
7189 H 129.56657383680266 124.59180400645448 160.87435897880476 H 0.0 **** 0.06
7190 H 130.30000751023948 125.30264102053468 159.41751849173951 H 0.0 **** 0.06
7191 C 96.22019616316692 70.15534059477125 63.18273526278634 C 0.0 **** -0.24
7192 H 95.83546550458726 70.94291905163604 62.535178573087194 H 0.0 **** 0.06
7193 H 96.51102675604957 69.29692360812155 62.577160304133315 H 0.0 **** 0.06
7194 H 95.44591318280177 69.85612764651782 63.8899811144415 H 0.0 **** 0.06
7195 H 97.08792715828884 70.5262492447329 63.72965108963132 H 0.0 **** 0.06
7196 C 51.94580261262324 36.76034565029073 158.98445625572197 C 0.0 **** -0.24
7197 H 52.18956248418786 37.822434489662726 159.00698630926104 H 0.0 **** 0.06
7198 H 52.814799325062864 36.18149841285202 159.3001504498527 H 0.0 **** 0.06
7199 H 51.66705478612538 36.47327713916195 157.97015525165057 H 0.0 **** 0.06
7200 H 51.11343587599758 36.56358484174979 159.65955399883654 H 0.0 **** 0.06
7201 C 169.681019323883 25.008701613183973 54.20076465255306 C 0.0 **** -0.24
7202 H 168.96419249052605 25.644326588634044 53.680539338363815 H 0.0 **** 0.06
7203 H 169.82012809201186 24.08389409085504 53.641002222454375 H 0.0 **** 0.06
7204 H 169.3044474328224 24.776755491951747 55.1976752954795 H 0.0 **** 0.06
7205 H 170.63460157546808 25.530948579889298 54.285341311860975 H 0.0 **** 0.06
7206 C 136.35540003413342 94.2347566233384 12.863149057995443 C 0.0 **** -0.24
7207 H 135.77081005340332 93.31558881427327 12.821975231006832 H 0.0 **** 0.06
7208 H 135.70638534066376 95.0865760116319 12.65917393368722 H 0.0 **** 0.06
7209 H 137.1479870583383 94.19447866001423 12.116699696654784 H 0.0 **** 0.06
7210 H 136.79490778005083 94.34153733474909 13.8548188631705 H 0.0 **** 0.06
7211 C 110.10133286836427 143.32845769594434 120.89645525609797 C 0.0 **** -0.24
7212 H 109.43107937995788 144.17730595545044 121.02841378487352 H 0.0 **** 0.06
7213 H 110.09490652522987 142.717293287173 121.79932621607395 H 0.0 **** 0.06
7214 H 111.11265002770992 143.68929497322506 120.70819677403858 H 0.0 **** 0.06
7215 H 109.76571962265697 142.72891338731148 120.04985701826541 H 0.0 **** 0.06
7216 C 26.333103483318496 83.38238077557156 25.103614268041596 C 0.0 **** -0.24
7217 H 27.05431958153008 83.98402276984517 25.656556786722433 H 0.0 **** 0.06
7218 H 26.652963695759723 83.294876355924 24.06475208431629 H 0.0 **** 0.06
7219 H 25.35443990800053 83.86024196238594 25.143532522237614 H 0.0 **** 0.06
7220 H 26.271090917434236 82.38952795027961 25.549283312706102 H 0.0 **** 0.06
7221 C 101.25347019812833 51.32826544188276 117.6345713321887 C 0.0 **** -0.24
7222 H 101.17821259635451 50.825347124107964 116.66955128422683 H 0.0 **** 0.06
7223 H 101.90390424869102 52.19783258964193 117.54087659760847 H 0.0 **** 0.06
7224 H 101.6692146985788 50.64100350422102 118.37060033374345 H 0.0 **** 0.06
7225 H 100.26226091046664 51.64827564161516 117.95490052017868 H 0.0 **** 0.06
7226 C 45.41275720641556 45.99259349554552 30.790473567248824 C 0.0 **** -0.24
7227 H 46.249971190716565 45.401137446486985 31.163222431580834 H 0.0 **** 0.06
7228 H 44.69499623196896 46.15389480399921 31.59563522497018 H 0.0 **** 0.06
7229 H 44.92853877943679 45.45954559262515 29.972075350593087 H 0.0 **** 0.06
7230 H 45.779681532469 46.953942274011354 30.432340600785267 H 0.0 **** 0.06
7231 C 99.44424420788954 14.262821433863195 123.85178789649001 C 0.0 **** -0.24
7232 H 99.32286442630496 15.081427767022774 124.56077998999996 H 0.0 **** 0.06
7233 H 100.27627132103444 13.631014822641305 124.16614841341715 H 0.0 **** 0.06
7234 H 99.65082123236317 14.668326490262672 122.86164459869616 H 0.0 **** 0.06
7235 H 98.52966383587747 13.671362403137266 123.81912106234859 H 0.0 **** 0.06
7236 C 170.71719250624716 32.59264524548573 148.33675441258 C 0.0 **** -0.24
7237 H 171.61461212786855 32.14496696345759 147.9109665137409 H 0.0 **** 0.06
7238 H 169.84052111796356 32.228646408364796 147.80097431896183 H 0.0 **** 0.06
7239 H 170.77394944272177 33.677861001762494 148.24499586031834 H 0.0 **** 0.06
7240 H 170.63911909424112 32.320352405915656 149.38902021555373 H 0.0 **** 0.06
7241 C 130.26097057325862 141.7589068709783 20.811678984422826 C 0.0 **** -0.24
7242 H 131.11539990385802 141.08504148655544 20.736139613735475 H 0.0 **** 0.06
7243 H 130.46003221440415 142.6630389176544 20.237619014599886 H 0.0 **** 0.06
7244 H 130.09658022326823 142.01926124006832 21.857071536444778 H 0.0 **** 0.06
7245 H 129.373444204328 141.26432506461592 20.41679929357369 H 0.0 **** 0.06
7246 C 105.53980088026137 90.15207496216198 119.12400966736504 C 0.0 **** -0.24
7247 H 106.07555014710715 90.69414380321928 119.90304963446417 H 0.0 **** 0.06
7248 H 104.47336585974094 90.15159552524051 119.35062016375343 H 0.0 **** 0.06
7249 H 105.90255542115256 89.12520478776412 119.08040956563377 H 0.0 **** 0.06
7250 H 105.70646125962833 90.63755873084389 118.16254567574148 H 0.0 **** 0.06
7251 C 107.83446387177679 124.2217025405399 115.77964700646913 C 0.0 **** -0.24
7252 H 108.82353489908033 124.1478654338006 116.23317738689238 H 0.0 **** 0.06
7253 H 107.42769266410681 123.2213409275553 115.63162331664836 H 0.0 **** 0.06
7254 H 107.91264219788388 124.72888581270024 114.81771796636471 H 0.0 **** 0.06
7255 H 107.17559010221987 124.78884400398519 116.43791604615913 H 0.0 **** 0.06
7256 C 151.4455093675498 128.355483975028 130.9737087355446 C 0.0 **** -0.24
7257 H 152.52078561201563 128.2017935667404 130.88352870523047 H 0.0 **** 0.06
7258 H 151.060906694526 128.78303360057419 130.04761300932464 H 0.0 **** 0.06
7259 H 151.24382232566978 129.0379500825548 131.79957103941345 H 0.0 **** 0.06
7260 H 150.95665091139102 127.400757342335 131.16346807461633 H 0.0 **** 0.06
7261 C 72.90287480790084 39.5251565377032 172.09554082420556 C 0.0 **** -0.24
7262 H 73.8324844269359 39.375993097000105 171.54624635814037 H 0.0 **** 0.06
7263 H 72.95313466467883 40.463903001877384 172.64647565284295 H 0.0 **** 0.06
7264 H 72.7561830574753 38.70118787157804 172.79312115903014 H 0.0 **** 0.06
7265 H 72.0686097664492 39.55950012250713 171.39303131089798 H 0.0 **** 0.06
7266 C 102.04581799031877 69.44676030387923 31.20676697544438 C 0.0 **** -0.24
7267 H 102.31358221305845 68.68126595455811 31.935773104276265 H 0.0 **** 0.06
7268 H 102.19772333076514 69.05843478699977 30.199547906543913 H 0.0 **** 0.06
7269 H 102.67425532913961 70.32574456581959 31.355892461048413 H 0.0 **** 0.06
7270 H 100.99983076663096 69.72179302554134 31.337066154359846 H 0.0 **** 0.06
7271 C 80.84820644107313 102.42558024269522 51.95277765282616 C 0.0 **** -0.24
7272 H 80.18337269513282 101.77470987139816 52.52107427331822 H 0.0 **** 0.06
7273 H 81.21801398021935 101.89230888116538 51.07743360427676 H 0.0 **** 0.06
7274 H 81.68950871459691 102.72192361947248 52.58045377477491 H 0.0 **** 0.06
7275 H 80.30226201277014 103.31340244537807 51.63384882101363 H 0.0 **** 0.06
7276 C 68.84441699354574 43.44214218615667 163.21070995945132 C 0.0 **** -0.24
7277 H 68.5079477255378 42.77153230358164 164.00084537701943 H 0.0 **** 0.06
7278 H 69.52310588930277 44.185178243304335 163.62891322577272 H 0.0 **** 0.06
7279 H 67.98347448395342 43.943803048455095 162.76822880117464 H 0.0 **** 0.06
7280 H 69.36282556562935 42.867019696505 162.44289560309136 H 0.0 **** 0.06
7281 C 68.0372065974359 141.6157868458813 147.02108697908454 C 0.0 **** -0.24
7282 H 67.57509102031639 142.15973295305534 147.84552074797728 H 0.0 **** 0.06
7283 H 68.1642380370152 140.57059471270668 147.30166420616152 H 0.0 **** 0.06
7284 H 69.01040602086462 142.05386037318553 146.7985635775882 H 0.0 **** 0.06
7285 H 67.39912043330222 141.68199720764144 146.13993011643208 H 0.0 **** 0.06
7286 C 86.92005959633534 130.72431314158302 151.1089677386143 C 0.0 **** -0.24
7287 H 86.5545157335904 131.00443061345572 150.121403031377 H 0.0 **** 0.06
7288 H 87.96793611354228 131.00969629363462 151.20330995735804 H 0.0 **** 0.06
7289 H 86.82450153763364 129.64610016259934 151.23993580582427 H 0.0 **** 0.06
7290 H 86.33322801355106 131.23575849000784 151.87240179139232 H 0.0 **** 0.06
7291 C 152.03652252357026 10.155415696669841 97.33402016375936 C 0.0 **** -0.24
7292 H 151.670788988129 11.165972498144171 97.15060770045733 H 0.0 **** 0.06
7293 H 151.96443047362976 9.571497008146316 96.41632092495212 H 0.0 **** 0.06
7294 H 151.43436896078867 9.687641868096861 98.11219937535242 H 0.0 **** 0.06
7295 H 153.076919195781 10.199497911002439 97.65588302894935 H 0.0 **** 0.06
7296 C 21.368213966702314 34.97223281734239 83.90452397610026 C 0.0 **** -0.24
7297 H 20.347014182023486 35.21136431618049 84.20360648916119 H 0.0 **** 0.06
7298 H 21.814392639156694 35.83675072144797 83.41366294542381 H 0.0 **** 0.06
7299 H 21.35620121106365 34.12783720515375 83.21564088164726 H 0.0 **** 0.06
7300 H 21.9528655293052 34.71263375333072 84.7878699449145 H 0.0 **** 0.06
7301 C 125.0649926880825 37.92111828322999 11.798452299318228 C 0.0 **** -0.24
7302 H 124.28740362286672 37.60958042956173 12.495766139758246 H 0.0 **** 0.06
7303 H 124.64322739079492 38.002591137670095 10.796565879341557 H 0.0 **** 0.06
7304 H 125.8676219527629 37.18323796978544 11.79619224808971 H 0.0 **** 0.06
7305 H 125.4623135382133 38.888614526683625 12.105950845961047 H 0.0 **** 0.06
7306 C 66.92132613130963 116.56604372472037 57.327555767277545 C 0.0 **** -0.24
7307 H 66.80402381964973 117.61195408333694 57.0461950743707 H 0.0 **** 0.06
7308 H 66.48436833080136 116.40468040382785 58.313946661148066 H 0.0 **** 0.06
7309 H 67.9810422229384 116.31270810702915 57.35305179208058 H 0.0 **** 0.06
7310 H 66.41401774260666 115.93438423687672 56.59763611134525 H 0.0 **** 0.06
7311 C 39.803407824198075 72.96954343322828 26.241356516508233 C 0.0 **** -0.24
7312 H 40.24266801782015 72.01952948318372 25.934550056276862 H 0.0 **** 0.06
7313 H 38.71685050917797 72.88675981383346 26.232856950324248 H 0.0 **** 0.06
7314 H 40.11435705600486 73.75214272657708 25.54891148542285 H 0.0 **** 0.06
7315 H 40.142893183881355 73.21805853694751 27.246800256309825 H 0.0 **** 0.06
7316 C 117.07220705174905 101.42323119613792 164.56652678214977 C 0.0 **** -0.24
7317 H 117.3348162372045 101.26340779011218 165.61263150935469 H 0.0 **** 0.06
7318 H 117.81781414852122 102.06795547903829 164.09978929838775 H 0.0 **** 0.06
7319 H 116.092132500937 101.89698039052024 164.5071233128661 H 0.0 **** 0.06
7320 H 117.04525067401244 100.46478728338144 164.0484478355657 H 0.0 **** 0.06
7321 C 63.371556619984915 58.321424770577494 162.9104370842942 C 0.0 **** -0.24
7322 H 64.06779655029986 58.07344425938754 162.10901533376654 H 0.0 **** 0.06
7323 H 62.59629593693897 57.556808966691506 162.96788928131298 H 0.0 **** 0.06
7324 H 62.912965494986295 59.28961049976738 162.70580375437896 H 0.0 **** 0.06
7325 H 63.90878627507517 58.367443332059565 163.85723207172373 H 0.0 **** 0.06
7326 C 161.75720447593912 169.2202609448852 167.5551781588495 C 0.0 **** -0.24
7327 H 162.24924550456268 169.72177370755722 166.72284186108115 H 0.0 **** 0.06
7328 H 162.4215135100579 168.4592557537568 167.9650071469147 H 0.0 **** 0.06
7329 H 160.83779019522768 168.75061320110683 167.20447517334588 H 0.0 **** 0.06
7330 H 161.5192428694998 169.94968291079488 168.32932029764336 H 0.0 **** 0.06
7331 C 11.23323079977223 105.88483026176289 64.03241577425277 C 0.0 **** -0.24
7332 H 12.00462531695402 106.46213120659539 64.54372619795869 H 0.0 **** 0.06
7333 H 11.604666621392255 105.56389354949516 63.05967880237955 H 0.0 **** 0.06
7334 H 10.346838807810002 106.50418676382887 63.89699076975275 H 0.0 **** 0.06
7335 H 10.978284034156815 105.01006049268307 64.63147437776405 H 0.0 **** 0.06
7336 C 106.76269992160428 149.03621736117285 119.24901276108488 C 0.0 **** -0.24
7337 H 106.95355715253899 148.03364797918894 119.63225986993058 H 0.0 **** 0.06
7338 H 106.61323143350467 148.98905444482597 118.1701605811499 H 0.0 **** 0.06
7339 H 107.61409589714776 149.6782619925512 119.47200767903507 H 0.0 **** 0.06
7340 H 105.86786931789476 149.4410787123843 119.7229744628142 H 0.0 **** 0.06
7341 C 31.53451973086173 146.17723852088088 35.607151058780886 C 0.0 **** -0.24
7342 H 30.778233007479045 146.82615355373395 35.16594153182092 H 0.0 **** 0.06
7343 H 32.28780294065322 145.93407668898888 34.85651135291354 H 0.0 **** 0.06
7344 H 31.06468571544127 145.25947140943308 35.96054419286929 H 0.0 **** 0.06
7345 H 32.00804238762561 146.68972936228647 36.44446558285068 H 0.0 **** 0.06
7346 C 29.68971276317953 14.744757137774059 140.6241109441312 C 0.0 **** -0.24
7347 H 28.948246321574743 15.174012042019285 139.9506408898778 H 0.0 **** 0.06
7348 H 29.490766785458504 15.07706598065755 141.64373614927825 H 0.0 **** 0.06
7349 H 30.68588658295316 15.071104496272085 140.32288121558014 H 0.0 **** 0.06
7350 H 29.6353118898775 13.656559954147156 140.57892632856397 H 0.0 **** 0.06
7351 C 77.58019012304462 141.42752547945753 129.47423489207083 C 0.0 **** -0.24
7352 H 78.39139119525274 140.98311300864373 130.05043324848697 H 0.0 **** 0.06
7353 H 77.14002663107524 142.24898761026327 130.03995855831283 H 0.0 **** 0.06
7354 H 76.81913738880303 140.67190012106528 129.27666650075076 H 0.0 **** 0.06
7355 H 77.97125604528381 141.8052290327742 128.52951342254775 H 0.0 **** 0.06
7356 C 100.63563341847131 117.46923027469319 55.31759202397603 C 0.0 **** -0.24
7357 H 101.50534830302965 117.40631832896116 55.97060447021414 H 0.0 **** 0.06
7358 H 100.30651768168755 118.5058424553564 55.2498706388491 H 0.0 **** 0.06
7359 H 99.83035426780827 116.8573063061304 55.7238489962599 H 0.0 **** 0.06
7360 H 100.90042370411669 117.10613498015579 54.323982881657116 H 0.0 **** 0.06
7361 C 119.18196053853703 14.701724650939354 63.65096772754701 C 0.0 **** -0.24
7362 H 118.34808765662689 15.387468538143992 63.801777307518265 H 0.0 **** 0.06
7363 H 119.31320687912111 14.088104855647373 64.54246104858515 H 0.0 **** 0.06
7364 H 120.09146783317019 15.272008613851597 63.463013323649605 H 0.0 **** 0.06
7365 H 118.97323641543207 14.059158316963476 62.79585959418891 H 0.0 **** 0.06
7366 C 6.838830707141653 170.34862202685275 41.947333244013635 C 0.0 **** -0.24
7367 H 6.443585529476991 169.4411673026824 42.40423407337728 H 0.0 **** 0.06
7368 H 7.283763616671251 170.1057081492414 40.982936173683726 H 0.0 **** 0.06
7369 H 7.597582457489068 170.78179991222106 42.599571624069924 H 0.0 **** 0.06
7370 H 6.029955051963441 171.06543479765537 41.80497166743106 H 0.0 **** 0.06
7371 C 14.785835731371833 91.32610631238333 0.9280715679246896 C 0.0 **** -0.24
7372 H 14.930473849567733 91.4847361799504 -0.14059889856737584 H 0.0 **** 0.06
7373 H 15.756128727280952 91.22014292086044 1.4135686896387654 H 0.0 **** 0.06
7374 H 14.200241818379169 90.4204319543602 1.0845097293925505 H 0.0 **** 0.06
7375 H 14.257364255612742 92.17905645255274 1.35251604106395 H 0.0 **** 0.06
7376 C 52.72267705588081 78.59986546476657 64.77918240362362 C 0.0 **** -0.24
7377 H 52.92396806589994 79.60985146185624 65.1372514187014 H 0.0 **** 0.06
7378 H 52.23077273518402 78.02707596378293 65.56530803634934 H 0.0 **** 0.06
7379 H 53.66212629848991 78.11696939933773 64.50919405056436 H 0.0 **** 0.06
7380 H 52.07538937918997 78.64776672784275 63.90410681388818 H 0.0 **** 0.06
7381 C 116.78530177812726 100.0668934637998 121.08250736111259 C 0.0 **** -0.24
7382 H 117.72300206229167 99.99258445189605 121.63195662503205 H 0.0 **** 0.06
7383 H 116.85137311743051 100.87795252021223 120.3575956710917 H 0.0 **** 0.06
7384 H 115.971293415106 100.26809422412526 121.78015116088321 H 0.0 **** 0.06
7385 H 116.59444873373349 99.12810911855962 120.56235521116952 H 0.0 **** 0.06
7386 C 157.51008946870837 50.032480715079956 118.21754827158952 C 0.0 **** -0.24
7387 H 157.04602500604074 49.071470142905014 118.43929370833496 H 0.0 **** 0.06
7388 H 157.70843805886028 50.56395862486984 119.14907298603234 H 0.0 **** 0.06
7389 H 156.83952763719338 50.624952911539324 117.59517723329043 H 0.0 **** 0.06
7390 H 158.4482727508075 49.86851406065183 117.68720945832024 H 0.0 **** 0.06
7391 C 98.91514399940598 74.82814817751563 148.67848562102085 C 0.0 **** -0.24
7392 H 99.00420795118742 73.79145595016215 149.00479690231148 H 0.0 **** 0.06
7393 H 97.92905544231593 75.2088126342939 148.9451260558797 H 0.0 **** 0.06
7394 H 99.0459443826577 74.87994928005025 147.59737734518777 H 0.0 **** 0.06
7395 H 99.6822908360281 75.42919314395611 149.16680300527767 H 0.0 **** 0.06
7396 C 63.436960909945455 147.7297762428268 135.0483591628797 C 0.0 **** -0.24
7397 H 63.029815475919776 148.41814471742418 134.30838511063922 H 0.0 **** 0.06
7398 H 64.48976902178173 147.54708718507504 134.83406739533223 H 0.0 **** 0.06
7399 H 62.88928887630108 146.78816581530958 135.0080189328654 H 0.0 **** 0.06
7400 H 63.33802524365748 148.1654236636544 136.04312811732163 H 0.0 **** 0.06
7401 C 156.12870322115901 88.35590766973996 161.8170288998544 C 0.0 **** -0.24
7402 H 156.61653956154407 88.81934937371804 160.95982200414474 H 0.0 **** 0.06
7403 H 155.89712720668942 87.31553316181837 161.5839158789088 H 0.0 **** 0.06
7404 H 155.20772350595897 88.8920194175651 162.0440128556783 H 0.0 **** 0.06
7405 H 156.79541693614573 88.39584888511328 162.67924740247682 H 0.0 **** 0.06
7406 C 42.95721197231612 136.28404715116147 2.0069340215807188 C 0.0 **** -0.24
7407 H 42.410611541100366 135.6565476408484 1.3020378912290766 H 0.0 **** 0.06
7408 H 42.33870618697773 136.46395706160467 2.8866340965076915 H 0.0 **** 0.06
7409 H 43.20192948532201 137.23436365606966 1.532691405900266 H 0.0 **** 0.06
7410 H 43.87589900418402 135.7793016645164 2.3049479494895877 H 0.0 **** 0.06
7411 C 100.29505124934386 92.64836224565886 9.628930778178756 C 0.0 **** -0.24
7412 H 99.52100929543172 92.12280766981411 9.069668203899369 H 0.0 **** 0.06
7413 H 100.61321468062485 93.52925577600888 9.07096857878463 H 0.0 **** 0.06
7414 H 101.14655990715445 91.98579067604925 9.779765356417727 H 0.0 **** 0.06
7415 H 99.89830883430463 92.9552952878962 10.596955966377124 H 0.0 **** 0.06
7416 C 85.81683060265999 172.68396730876702 110.13452030344564 C 0.0 **** -0.24
7417 H 85.40255895276795 173.1868571934894 111.00944830189309 H 0.0 **** 0.06
7418 H 86.66864704529326 173.25026787090013 109.7596649044687 H 0.0 **** 0.06
7419 H 85.05341567568314 172.61921373497046 109.35873500484973 H 0.0 **** 0.06
7420 H 86.14018085124451 171.68077113417013 110.41199684805224 H 0.0 **** 0.06
7421 C 135.57022994172362 84.36673189210836 13.394552552670348 C 0.0 **** -0.24
7422 H 136.3467207376584 83.74621985941835 13.841962931895807 H 0.0 **** 0.06
7423 H 134.6542412380238 83.7847129945269 13.291859374475308 H 0.0 **** 0.06
7424 H 135.8982508736128 84.7054919980401 12.410950960513901 H 0.0 **** 0.06
7425 H 135.38344117458269 85.23066161191662 14.032453472051316 H 0.0 **** 0.06
7426 C 27.9029155799484 18.096981243323853 10.31713351057283 C 0.0 **** -0.24
7427 H 28.983186365395056 18.24370666477415 10.348833753045255 H 0.0 **** 0.06
7428 H 27.45921070749668 18.81883933233658 9.631506010604767 H 0.0 **** 0.06
7429 H 27.488324225136218 18.241184004113677 11.315349311690568 H 0.0 **** 0.06
7430 H 27.683042037477932 17.085847021124465 9.975463527232307 H 0.0 **** 0.06
7431 C 56.385881497519634 136.71748520493944 135.61041420176932 C 0.0 **** -0.24
7432 H 57.45357291298711 136.87618032276754 135.4552203953732 H 0.0 **** 0.06
7433 H 56.199081169329546 136.5095000635032 136.6637920986817 H 0.0 **** 0.06
7434 H 56.053512638855736 135.87149056655457 135.00788019448325 H 0.0 **** 0.06
7435 H 55.83932315789335 137.61256052189628 135.31250589665277 H 0.0 **** 0.06
7436 C 150.5815696655058 4.2355168605528775 110.33575308756403 C 0.0 **** -0.24
7437 H 150.65805744664266 4.396064250250731 111.4113749326302 H 0.0 **** 0.06
7438 H 149.60584750728304 3.810374371650312 110.10172038962855 H 0.0 **** 0.06
7439 H 151.36482729622696 3.548221778437437 110.01486033349619 H 0.0 **** 0.06
7440 H 150.69850097364446 5.186982492213303 109.81768515276823 H 0.0 **** 0.06
7441 C 145.15462324258533 27.294849914100126 167.67319810313913 C 0.0 **** -0.24
7442 H 145.6214510233488 26.31859500131462 167.54152669394344 H 0.0 **** 0.06
7443 H 145.34596398200074 27.655586445353393 168.68334464426226 H 0.0 **** 0.06
7444 H 144.07983831528907 27.20832901617601 167.51472832758463 H 0.0 **** 0.06
7445 H 145.57264259760623 27.99710827998291 166.95055002284855 H 0.0 **** 0.06
7446 C 163.89713476517562 11.974975613094898 11.35487753026294 C 0.0 **** -0.24
7447 H 164.21702351353963 11.42551170534199 12.23919180474644 H 0.0 **** 0.06
7448 H 164.03158314301453 11.350729604295907 10.470788861249076 H 0.0 **** 0.06
7449 H 164.49492735099216 12.88132715714437 11.254268824544425 H 0.0 **** 0.06
7450 H 162.84489480924506 12.24299051432672 11.45366159952303 H 0.0 **** 0.06
7451 C 26.13827040586321 172.11036273142992 155.70774383606886 C 0.0 **** -0.24
7452 H 26.816275118062784 171.85536150846758 156.52220756795356 H 0.0 **** 0.06
7453 H 26.71331301543283 172.46726648618647 154.85360047665708 H 0.0 **** 0.06
7454 H 25.45328707605742 172.8915066567643 156.03723615259494 H 0.0 **** 0.06
7455 H 25.568624568523283 171.2264360418231 155.42010443477403 H 0.0 **** 0.06
7456 C 149.9811465174811 38.44162375884315 142.97455798692653 C 0.0 **** -0.24
7457 H 150.312505756039 38.93978963458221 142.06375230817582 H 0.0 **** 0.06
7458 H 148.9633840252017 38.755007406844584 143.210851095712 H 0.0 **** 0.06
7459 H 150.6439591874388 38.71186546059121 143.7976691710192 H 0.0 **** 0.06
7460 H 150.00504599126216 37.362229482790326 142.82742887741472 H 0.0 **** 0.06
7461 C 149.80219318226938 142.06798829627175 53.06524151577845 C 0.0 **** -0.24
7462 H 149.40287779102604 142.5764949081145 53.94337559343376 H 0.0 **** 0.06
7463 H 149.64139170116897 142.68871667286317 52.182770325399446 H 0.0 **** 0.06
7464 H 149.29199204395695 141.11355273450224 52.935971495965916 H 0.0 **** 0.06
7465 H 150.8693929021017 141.8952109334929 53.19928213537018 H 0.0 **** 0.06
7466 C 143.51592352509505 40.96184577725003 18.145883891249326 C 0.0 **** -0.24
7467 H 143.88391694039078 41.8971440257628 18.568124614590886 H 0.0 **** 0.06
7468 H 143.1327239359153 41.1431154957381 17.140956236984948 H 0.0 **** 0.06
7469 H 142.71587606308285 40.57028686788084 18.774599948083193 H 0.0 **** 0.06
7470 H 144.32991489003712 40.239718429224524 18.100175235467248 H 0.0 **** 0.06
7471 C 120.1251888771817 31.44259065025463 101.24233395997857 C 0.0 **** -0.24
7472 H 120.60436646594565 31.252998903839114 102.20255840183734 H 0.0 **** 0.06
7473 H 119.81520366355917 30.49715310261172 100.7975158088372 H 0.0 **** 0.06
7474 H 120.82984663168068 31.943723147754298 100.57817293049106 H 0.0 **** 0.06
7475 H 119.25139250880599 32.077869096133384 101.3913857016895 H 0.0 **** 0.06
7476 C 83.67891593966499 114.6370176666232 156.30797762596077 C 0.0 **** -0.24
7477 H 83.0751574115928 114.31003155249044 155.46124808582502 H 0.0 **** 0.06
7478 H 83.4265669590532 114.04136425016469 157.18526046782148 H 0.0 **** 0.06
7479 H 83.47783827928583 115.68876695725939 156.5119246582367 H 0.0 **** 0.06
7480 H 84.735422429357 114.50779045582485 156.07159960419065 H 0.0 **** 0.06
7481 C 75.34525115833272 149.97445162307406 163.70595219446136 C 0.0 **** -0.24
7482 H 74.61677964245521 150.11227009617315 164.504613253919 H 0.0 **** 0.06
7483 H 75.77985484683857 150.93786408755412 163.44127462799844 H 0.0 **** 0.06
7484 H 74.85042679536468 149.5458965833938 162.83400573262267 H 0.0 **** 0.06
7485 H 76.13222784505737 149.30019793019176 164.04466867370905 H 0.0 **** 0.06
7486 C 78.11715126969051 166.35363763354536 170.91618656245987 C 0.0 **** -0.24
7487 H 79.06022741649713 166.79460173341835 170.59178363977355 H 0.0 **** 0.06
7488 H 77.71025270300856 166.93727770811068 171.74280984066831 H 0.0 **** 0.06
7489 H 78.289239029829 165.32921329940217 171.24417548069948 H 0.0 **** 0.06
7490 H 77.41101873646699 166.35696904603753 170.08632759262036 H 0.0 **** 0.06
7491 C 45.04408933827273 34.567066929227565 126.40049455840341 C 0.0 **** -0.24
7492 H 44.85828573314069 35.617405273773116 126.17541329420928 H 0.0 **** 0.06
7493 H 45.029304826911726 33.98987204832707 125.47650449052048 H 0.0 **** 0.06
7494 H 44.270323421415256 34.19709600631889 127.07315346602638 H 0.0 **** 0.06
7495 H 46.01910176334354 34.46541426321002 126.87741352503437 H 0.0 **** 0.06
7496 C 73.3514909983995 130.1690504909915 80.66208972057242 C 0.0 **** -0.24
7497 H 72.8795166707009 131.08126214750115 80.29632431938056 H 0.0 **** 0.06
7498 H 73.44217698764217 130.21634810247096 81.74731005490348 H 0.0 **** 0.06
7499 H 74.34178799241866 130.0696152472232 80.21814752996895 H 0.0 **** 0.06
7500 H 72.74119293447345 129.30904300397117 80.38475128952679 H 0.0 **** 0.06
7501 C 26.33890074778091 100.99162979633144 166.95727029857733 C 0.0 **** -0.24
7502 H 26.68209507572405 100.03821052715728 167.35760329279142 H 0.0 **** 0.06
7503 H 26.662933850103684 101.08775999809717 165.9211604065192 H 0.0 **** 0.06
7504 H 26.75967597038172 101.80625930218997 167.54665146861257 H 0.0 **** 0.06
7505 H 25.25023685370732 101.03389631131478 167.00302704094435 H 0.0 **** 0.06
7506 C 11.044555350344837 53.57159891593432 138.98646354940672 C 0.0 **** -0.24
7507 H 12.074631257742027 53.780039206357515 138.69528407126023 H 0.0 **** 0.06
7508 H 10.562400355550757 52.972257826633324 138.2133115318515 H 0.0 **** 0.06
7509 H 10.504943735785169 54.510117334705896 139.10879766670428 H 0.0 **** 0.06
7510 H 11.03833644954831 53.02323250470445 139.92819693814477 H 0.0 **** 0.06
7511 C 171.02090055036354 62.72163872087094 37.10578498856417 C 0.0 **** -0.24
7512 H 171.17622837655938 61.643586363968325 37.076364898583975 H 0.0 **** 0.06
7513 H 171.47807362036298 63.178874661475646 36.22803372804401 H 0.0 **** 0.06
7514 H 171.47701462586951 63.12969011570503 38.00773631385417 H 0.0 **** 0.06
7515 H 169.95144644543404 62.93359133145297 37.11180244706148 H 0.0 **** 0.06
7516 C 17.247264018672666 152.721279945287 74.7337876503008 C 0.0 **** -0.24
7517 H 17.595511269722877 153.7334750204646 74.94404278237107 H 0.0 **** 0.06
7518 H 16.17654007391183 152.65821241188542 74.92915632525994 H 0.0 **** 0.06
7519 H 17.776215759534416 152.01619880552624 75.37532084363752 H 0.0 **** 0.06
7520 H 17.44177193239053 152.47956798497506 73.68899380567359 H 0.0 **** 0.06
7521 C 97.48659426846109 46.46230808283963 38.71516183816607 C 0.0 **** -0.24
7522 H 98.22999841897561 46.81941005764588 39.42758841193408 H 0.0 **** 0.06
7523 H 97.97190986304426 45.83784599066274 37.965471877039576 H 0.0 **** 0.06
7524 H 97.0122835702773 47.314211017786675 38.22643392115779 H 0.0 **** 0.06
7525 H 96.73097594338938 45.87829318659854 39.2406442208642 H 0.0 **** 0.06
7526 C 98.78855740438712 118.76200898931896 11.332191403122934 C 0.0 **** -0.24
7527 H 97.70490488603983 118.73243658739469 11.44920379117768 H 0.0 **** 0.06
7528 H 99.21589162015795 119.42930712376031 12.080012789475717 H 0.0 **** 0.06
7529 H 99.03676945989412 119.12436815770747 10.335154912980443 H 0.0 **** 0.06
7530 H 99.1946228439792 117.75913632324142 11.465830733362083 H 0.0 **** 0.06
7531 C 50.370945465782654 166.89755843645472 15.865161225225222 C 0.0 **** -0.24
7532 H 50.5485212785934 166.73074646819495 16.927542880047298 H 0.0 **** 0.06
7533 H 51.21419765837669 166.51202724169067 15.291263456006646 H 0.0 **** 0.06
7534 H 50.26283578801588 167.96642694093327 15.678314683895621 H 0.0 **** 0.06
7535 H 49.459836595815034 166.38219790661853 15.563754036610163 H 0.0 **** 0.06
7536 C 135.96552174948098 115.15608728179939 5.350457087457585 C 0.0 **** -0.24
7537 H 136.91647539177214 115.38855109286735 5.828716330267127 H 0.0 **** 0.06
7538 H 135.14865214876102 115.39933505613072 6.030627498418141 H 0.0 **** 0.06
7539 H 135.9303208505081 114.09531695218618 5.1053808834617485 H 0.0 **** 0.06
7540 H 135.86553335637709 115.74381593311531 4.438388276428213 H 0.0 **** 0.06
7541 C 73.8877436207872 1.4230943639657667 151.07774647482785 C 0.0 **** -0.24
7542 H 74.87445277195911 0.9602141515549008 151.04572825130649 H 0.0 **** 0.06
7543 H 73.95250388544173 2.4439428228446616 150.70293094539426 H 0.0 **** 0.06
7544 H 73.52619295557992 1.4343588381982002 152.10608514441853 H 0.0 **** 0.06
7545 H 73.19900126516478 0.8505041975123149 150.45682808691387 H 0.0 **** 0.06
7546 C 5.793169703827317 21.005411513117622 121.00908424896946 C 0.0 **** -0.24
7547 H 6.080325969405145 19.972868659966537 120.80763015776603 H 0.0 **** 0.06
7548 H 5.593870033488216 21.515938536319254 120.0657369930097 H 0.0 **** 0.06
7549 H 6.603102365107766 21.51275008242115 121.53325582997329 H 0.0 **** 0.06
7550 H 4.894945658173086 21.0186984201286 121.62626752905973 H 0.0 **** 0.06
7551 C 114.94833998076422 90.66764855985946 171.7949105076003 C 0.0 **** -0.24
7552 H 115.64416344538535 90.73957087105009 172.62977578003253 H 0.0 **** 0.06
7553 H 114.41126253808784 91.61018154372394 171.68709775576463 H 0.0 **** 0.06
7554 H 114.23766215076509 89.86283938441966 171.9817430167999 H 0.0 **** 0.06
7555 H 115.50159746463049 90.45743224056207 170.87904617905082 H 0.0 **** 0.06
7556 C 11.563388913916299 141.0984871972577 9.56817013006588 C 0.0 **** -0.24
7557 H 11.57676590030519 142.1883602475362 9.555842235891532 H 0.0 **** 0.06
7558 H 11.028745845559456 140.73263584145582 8.691750281165355 H 0.0 **** 0.06
7559 H 11.061378450823781 140.75191259474485 10.471271848703907 H 0.0 **** 0.06
7560 H 12.58571866434579 140.7227982099847 9.553929112685779 H 0.0 **** 0.06
7561 C 125.3947244176077 27.553725035614463 165.12569432551987 C 0.0 **** -0.24
7562 H 125.15223237515318 26.57450118689374 165.53657922902664 H 0.0 **** 0.06
7563 H 124.65149737847418 27.826782800434614 164.37475405668152 H 0.0 **** 0.06
7564 H 126.3821725075386 27.520662083803508 164.6651595279784 H 0.0 **** 0.06
7565 H 125.39127310410274 28.294145383780275 165.92550053735846 H 0.0 **** 0.06
7566 C 99.92615505010727 39.755261607468384 113.4370086175092 C 0.0 **** -0.24
7567 H 99.20082758694141 39.592346878902106 114.23476614590169 H 0.0 **** 0.06
7568 H 100.12985311493861 40.82202136167433 113.34325407315959 H 0.0 **** 0.06
7569 H 99.52279757409863 39.378357429208506 112.49773382228892 H 0.0 **** 0.06
7570 H 100.84986750223095 39.228153186462265 113.67381270764753 H 0.0 **** 0.06
7571 C 93.90061162555395 91.4341137389888 18.650515541046474 C 0.0 **** -0.24
7572 H 94.46826502786399 90.8485055265015 17.927456194954118 H 0.0 **** 0.06
7573 H 92.95011030428819 90.94025449619701 18.852704747402015 H 0.0 **** 0.06
7574 H 93.71581930186082 92.42867612908259 18.245945889493754 H 0.0 **** 0.06
7575 H 94.47077929441971 91.51779268062866 19.57628542508536 H 0.0 **** 0.06
7576 C 102.80004130474134 64.27353108139755 23.99317048903862 C 0.0 **** -0.24
7577 H 103.40555719262721 64.114383018674 24.88491516273939 H 0.0 **** 0.06
7578 H 103.12481725701383 63.590449872573174 23.20714830201871 H 0.0 **** 0.06
7579 H 102.91820837323795 65.30224947590236 23.652767501894488 H 0.0 **** 0.06
7580 H 101.75242569550028 64.08597595221374 24.22746043516935 H 0.0 **** 0.06
7581 C 73.38526588292831 76.16277183338075 33.47645180608015 C 0.0 **** -0.24
7582 H 73.93514428554556 76.268531508038 34.41156827772693 H 0.0 **** 0.06
7583 H 73.87667971801204 75.42027616887812 32.84772069061171 H 0.0 **** 0.06
7584 H 73.36340780595503 77.1218673031552 32.958310600257846 H 0.0 **** 0.06
7585 H 72.36545574664672 75.84219924162548 33.68984039594483 H 0.0 **** 0.06
7586 C 78.61562000884715 80.12530501630863 1.5268522024148865 C 0.0 **** -0.24
7587 H 78.64984972998812 79.31014973616124 0.8042116460794375 H 0.0 **** 0.06
7588 H 78.74485408813658 81.07596733038451 1.0077771090520855 H 0.0 **** 0.06
7589 H 79.41496559778557 79.99742835416777 2.256718197762325 H 0.0 **** 0.06
7590 H 77.65243761699989 80.11855443283548 2.0372572372765205 H 0.0 **** 0.06
7591 C 124.29080431572405 33.26860153215671 155.00261081405088 C 0.0 **** -0.24
7592 H 124.87157072826551 33.096542295976576 155.90944718863713 H 0.0 **** 0.06
7593 H 124.85292742255893 33.91669639181964 154.32984275202136 H 0.0 **** 0.06
7594 H 123.34514419022278 33.74462859338837 155.26190282928007 H 0.0 **** 0.06
7595 H 124.09552397083885 32.31645830982251 154.51034358341792 H 0.0 **** 0.06
7596 C 145.34027482049487 44.66842047227783 80.12776229222646 C 0.0 **** -0.24
7597 H 144.87714497488764 45.11140969509637 79.24616234028923 H 0.0 **** 0.06
7598 H 146.24580087239602 45.22146618581593 80.37815838878214 H 0.0 **** 0.06
7599 H 145.59398987283885 43.62989874853281 79.92175401731822 H 0.0 **** 0.06
7600 H 144.64377241950893 44.713874968908726 80.96477452028657 H 0.0 **** 0.06
7601 C 56.253291856232806 58.6488407506221 85.74622825797013 C 0.0 **** -0.24
7602 H 55.68636853206722 58.09715613324286 86.49674823679727 H 0.0 **** 0.06
7603 H 56.81044606779871 59.45176406459126 86.22855129429973 H 0.0 **** 0.06
7604 H 55.567085070255544 59.07184684374664 85.01291573117307 H 0.0 **** 0.06
7605 H 56.94703877113656 57.972902566235746 85.24710307162633 H 0.0 **** 0.06
7606 C 59.06296233569823 16.626493155897293 140.35551449883891 C 0.0 **** -0.24
7607 H 58.864812813551964 15.612312829291312 140.011703272783 H 0.0 **** 0.06
7608 H 60.13003411343398 16.83754767219915 140.26890578378843 H 0.0 **** 0.06
7609 H 58.757192064322794 16.724045382219828 141.3973965944945 H 0.0 **** 0.06
7610 H 58.5015916666685 17.33385619907176 139.74532708954482 H 0.0 **** 0.06
7611 C 138.80694711787902 100.39540982901693 55.572575174423946 C 0.0 **** -0.24
7612 H 138.78884840735572 99.6863599218008 54.74511409285037 H 0.0 **** 0.06
7613 H 139.2982977795523 101.3152504487825 55.25199131944271 H 0.0 **** 0.06
7614 H 139.35612814914361 99.96240518998584 56.40888455125253 H 0.0 **** 0.06
7615 H 137.78669035467905 100.61750976645433 55.8831921439579 H 0.0 **** 0.06
7616 C 61.476526748540735 54.79924737813327 135.49959902466264 C 0.0 **** -0.24
7617 H 62.43748667729044 54.826960509726376 134.98625394342153 H 0.0 **** 0.06
7618 H 60.93900603086105 53.89490533093759 135.21516078421794 H 0.0 **** 0.06
7619 H 60.890111473577036 55.67460550156116 135.21976072206363 H 0.0 **** 0.06
7620 H 61.63949996989376 54.80183499550691 136.5777364194187 H 0.0 **** 0.06
7621 C 66.96865525128175 52.49659559362695 10.599087212843749 C 0.0 **** -0.24
7622 H 66.59294648163467 53.51939979543633 10.556640803167255 H 0.0 **** 0.06
7623 H 68.02360263120597 52.48572874115453 10.320321727428222 H 0.0 **** 0.06
7624 H 66.4034555193764 51.87288467862945 9.908108138215361 H 0.0 **** 0.06
7625 H 66.85748104999307 52.11052297693536 11.612352931741782 H 0.0 **** 0.06
7626 C 56.97490048121789 68.98642684068403 146.42967675395116 C 0.0 **** -0.24
7627 H 57.58704897281868 69.50159438673688 147.17004072741574 H 0.0 **** 0.06
7628 H 57.61318122298701 68.3677666981323 145.7982224568226 H 0.0 **** 0.06
7629 H 56.4551817221669 69.7202019081613 145.81418205347063 H 0.0 **** 0.06
7630 H 56.24446468488232 68.35633820702606 146.93763547200717 H 0.0 **** 0.06
7631 C 11.927069074875021 29.474362950323723 8.656314932445952 C 0.0 **** -0.24
7632 H 12.524634842316345 30.082519145340612 9.334737629404628 H 0.0 **** 0.06
7633 H 11.198206951591374 28.89961653515431 9.22822468399854 H 0.0 **** 0.06
7634 H 12.57886537082311 28.793441626282245 8.108830752156386 H 0.0 **** 0.06
7635 H 11.405766301048402 30.123271446266727 7.950936005176786 H 0.0 **** 0.06
7636 C 104.47611264101155 12.34452925959613 11.572419762892167 C 0.0 **** -0.24
7637 H 103.86049511748635 11.472691738704441 11.352950942414324 H 0.0 **** 0.06
7638 H 105.52737408472035 12.05850234276835 11.564665108498815 H 0.0 **** 0.06
7639 H 104.2133964055711 12.735957725816633 12.555510367701984 H 0.0 **** 0.06
7640 H 104.30142165470224 13.111265754711269 10.817894494646318 H 0.0 **** 0.06
7641 C 56.192390401241084 11.649098116303719 91.51711866962103 C 0.0 **** -0.24
7642 H 57.03165582411259 11.103170584070739 91.08712815578201 H 0.0 **** 0.06
7643 H 55.25787187275188 11.247801235842758 91.12385648701718 H 0.0 **** 0.06
7644 H 56.27304853731329 12.704389458509212 91.25641072287408 H 0.0 **** 0.06
7645 H 56.20679877452818 11.541724555475213 92.6022977041971 H 0.0 **** 0.06
7646 C 54.64001582124183 77.89807872142558 13.24615632101959 C 0.0 **** -0.24
7647 H 55.6169390727855 77.77907272542069 12.778587403893873 H 0.0 **** 0.06
7648 H 54.041859424583095 78.60044631470862 12.66429816145736 H 0.0 **** 0.06
7649 H 54.76614444987064 78.2807474670534 14.259194523063577 H 0.0 **** 0.06
7650 H 54.13491262702553 76.93342369774518 13.282289443526224 H 0.0 **** 0.06
7651 C 128.40722989008057 123.40320401667884 75.84335263049823 C 0.0 **** -0.24
7652 H 127.97073128007275 122.46959213903625 75.48727393948461 H 0.0 **** 0.06
7653 H 128.78566738453486 123.97341020376786 74.99571230767937 H 0.0 **** 0.06
7654 H 129.22524299974225 123.18261812974833 76.52848223786611 H 0.0 **** 0.06
7655 H 127.64559620243787 123.9842217310873 76.36309460295979 H 0.0 **** 0.06
7656 C 39.15035852832867 97.39327872836859 144.72534825669825 C 0.0 **** -0.24
7657 H 38.5315320973789 98.21216716234835 145.09306796508824 H 0.0 **** 0.06
7658 H 38.571581200225836 96.46890885778794 144.7342573256697 H 0.0 **** 0.06
7659 H 40.023826140006136 97.28101592025783 145.3677084207139 H 0.0 **** 0.06
7660 H 39.47290333525861 97.61093617791195 143.70756770843352 H 0.0 **** 0.06
7661 C 80.75317687308291 164.82273765442343 25.84713780750066 C 0.0 **** -0.24
7662 H 80.30972200348401 164.11724266496412 26.54967519354878 H 0.0 **** 0.06
7663 H 79.99320899852847 165.53282029785302 25.51815497038745 H 0.0 **** 0.06
7664 H 81.14251463016083 164.2805098347837 24.985200281042957 H 0.0 **** 0.06
7665 H 81.56517746975106 165.36032971423006 26.336328957106403 H 0.0 **** 0.06
7666 C 1.2388019104173793 170.55598781284863 12.369039356078218 C 0.0 **** -0.24
7667 H 0.63235945688524 170.0783180219335 13.13863100720453 H 0.0 **** 0.06
7668 H 0.6068060083815681 170.81957248675926 11.520509152278208 H 0.0 **** 0.06
7669 H 2.0175232924143813 169.8666111039963 12.041480245404884 H 0.0 **** 0.06
7670 H 1.6978207701618828 171.45734977373826 12.774486604366082 H 0.0 **** 0.06
7671 C 71.64912268593412 44.32781462885191 82.70280210934342 C 0.0 **** -0.24
7672 H 72.29913473855316 43.73876257174834 83.35128051616292 H 0.0 **** 0.06
7673 H 72.22212104238224 44.69322777649097 81.85103202329194 H 0.0 **** 0.06
7674 H 71.24851805843917 45.17296943832764 83.2622593963553 H 0.0 **** 0.06
7675 H 70.82780131800416 43.70357467797578 82.34970311153421 H 0.0 **** 0.06
7676 C 109.15128189272144 79.61220206729844 91.31315747506945 C 0.0 **** -0.24
7677 H 108.58648043708223 80.23963836021132 90.62447600506499 H 0.0 **** 0.06
7678 H 108.81226495044848 79.79558090689284 92.33268084207324 H 0.0 **** 0.06
7679 H 110.21194121950901 79.84972765660179 91.2341286218278 H 0.0 **** 0.06
7680 H 108.9938880337574 78.56318684087981 91.06085520765872 H 0.0 **** 0.06
7681 C 16.315332799901377 128.59589055490363 99.79689110694872 C 0.0 **** -0.24
7682 H 15.55241086371089 128.1662359572158 100.44588511603081 H 0.0 **** 0.06
7683 H 15.897059561758311 129.4466143548607 99.25868045442584 H 0.0 **** 0.06
7684 H 16.651527672591094 127.84321138670231 99.0847771960907 H 0.0 **** 0.06
7685 H 17.16005122307282 128.92770707894428 100.40120128029372 H 0.0 **** 0.06
7686 C 170.03836659664321 80.31341024132237 124.01507230847088 C 0.0 **** -0.24
7687 H 171.0262786904074 79.92548224072556 124.26447311423544 H 0.0 **** 0.06
7688 H 170.0484457543705 81.40209366561915 124.08260783471908 H 0.0 **** 0.06
7689 H 169.30418349938444 79.91195798597518 124.71359750633934 H 0.0 **** 0.06
7690 H 169.77646092827916 80.01400764356407 123.000781590689 H 0.0 **** 0.06
7691 C 80.84053336689733 0.4595914548577724 170.45692648541822 C 0.0 **** -0.24
7692 H 80.45361107141775 0.4533159596716203 171.47620758336512 H 0.0 **** 0.06
7693 H 81.86384767802798 0.08294410847243938 170.45431720153096 H 0.0 **** 0.06
7694 H 80.82694000869625 1.4786176123635144 170.06996382241041 H 0.0 **** 0.06
7695 H 80.21811312585183 -0.17574377029768584 169.82834289797796 H 0.0 **** 0.06
7696 C 124.7068618981717 71.74013573606065 77.68446724580977 C 0.0 **** -0.24
7697 H 123.74567690973424 71.24264169243408 77.55581937493443 H 0.0 **** 0.06
7698 H 125.1471910717903 71.43930299424568 78.63581423981503 H 0.0 **** 0.06
7699 H 124.56008800543799 72.82036144598408 77.67790710822038 H 0.0 **** 0.06
7700 H 125.3734903302909 71.45958170539883 76.86980773577729 H 0.0 **** 0.06
7701 C 75.40315789567427 123.7343534675191 63.89756200493483 C 0.0 **** -0.24
7702 H 76.36933768723341 123.94226807585287 64.35617107785254 H 0.0 **** 0.06
7703 H 74.87937876013316 124.67214930042098 63.71155236422271 H 0.0 **** 0.06
7704 H 74.80814312652478 123.1138259597474 64.56805006369365 H 0.0 **** 0.06
7705 H 75.55364057531096 123.20852216164832 62.95428282636317 H 0.0 **** 0.06
7706 C 7.0581991912216395 69.10811960815562 3.2121731417820456 C 0.0 **** -0.24
7707 H 7.159086889594299 68.70360429284375 4.218456983433043 H 0.0 **** 0.06
7708 H 8.047789224254153 69.25659266355234 2.779610414679155 H 0.0 **** 0.06
7709 H 6.531898523829483 70.061879702922 3.2549689915553586 H 0.0 **** 0.06
7710 H 6.492418492542903 68.40917407682906 2.594696356184272 H 0.0 **** 0.06
7711 C 94.22094211754975 98.14175497959897 39.03185244463623 C 0.0 **** -0.24
7712 H 93.9692088160142 97.08479294720456 38.94923421800881 H 0.0 **** 0.06
7713 H 94.18362462824209 98.4433934082939 40.07854334638867 H 0.0 **** 0.06
7714 H 93.50478891820092 98.73122696529205 38.45781620227952 H 0.0 **** 0.06
7715 H 95.22481753080268 98.30799218912068 38.64077376127638 H 0.0 **** 0.06
7716 C 110.47924323264499 1.299882878416895 38.953029275440656 C 0.0 **** -0.24
7717 H 111.28421335494835 0.714516093703935 38.50943487156408 H 0.0 **** 0.06
7718 H 110.81434382530512 1.717912424359838 39.9025349839506 H 0.0 **** 0.06
7719 H 109.6148678987592 0.6570652369269396 39.12419875411837 H 0.0 **** 0.06
7720 H 110.20234971938777 2.108061057228781 38.27675923145682 H 0.0 **** 0.06
7721 C 141.123145602367 66.68736710953192 89.10900112007982 C 0.0 **** -0.24
7722 H 141.33940007489426 67.32066277035108 88.24918208875715 H 0.0 **** 0.06
7723 H 140.22275854676622 66.10421466703883 88.91361282120369 H 0.0 **** 0.06
7724 H 140.9687441429095 67.3113749008495 89.98930200738062 H 0.0 **** 0.06
7725 H 141.9616796448982 66.01321609988815 89.28390756297773 H 0.0 **** 0.06
7726 C 165.06082490265268 6.709201572561028 127.60395281552843 C 0.0 **** -0.24
7727 H 164.94385150578168 7.784768297411929 127.47364313358273 H 0.0 **** 0.06
7728 H 166.0538397309774 6.497256149160378 128.00117805688467 H 0.0 **** 0.06
7729 H 164.93989451924622 6.211165439360968 126.64246334073164 H 0.0 **** 0.06
7730 H 164.30473813182905 6.343854977946677 128.299522272751 H 0.0 **** 0.06
7731 C 145.1999567049053 150.6255325665161 39.717689242983255 C 0.0 **** -0.24
7732 H 146.15587497946296 150.2552030886598 40.08546017915795 H 0.0 **** 0.06
7733 H 145.34094239494044 151.08244593574958 38.73791814365151 H 0.0 **** 0.06
7734 H 144.80619315261544 151.3679907059263 40.411579977949586 H 0.0 **** 0.06
7735 H 144.49644936835978 149.79684934515808 39.63414437186934 H 0.0 **** 0.06
7736 C 129.77453575154513 93.46028586689926 99.17833513935358 C 0.0 **** -0.24
7737 H 130.01061086555583 94.15667429044697 98.37379683360527 H 0.0 **** 0.06
7738 H 129.6061649372714 94.01532954870237 100.10088646531247 H 0.0 **** 0.06
7739 H 130.60633862617877 92.76895539748335 99.31567909239712 H 0.0 **** 0.06
7740 H 128.8750689995116 92.90106635999831 98.92069335057221 H 0.0 **** 0.06
7741 C 145.60530033706203 50.95714971519715 112.45134569661062 C 0.0 **** -0.24
7742 H 145.5105564741227 50.137601683492704 111.73877091636407 H 0.0 **** 0.06
7743 H 146.65758048434685 51.10190589686255 112.70079787793011 H 0.0 **** 0.06
7744 H 145.0471353943354 50.717940345015734 113.35689745009586 H 0.0 **** 0.06
7745 H 145.207876133777 51.871224377668284 112.00936750798459 H 0.0 **** 0.06
7746 C 45.20771953365647 113.28885685895625 12.238121451711748 C 0.0 **** -0.24
7747 H 45.44518963257701 114.34932302190498 12.32857411324133 H 0.0 **** 0.06
7748 H 44.44483034805842 113.15093328542378 11.472058558059302 H 0.0 **** 0.06
7749 H 44.8368975108811 112.91713523902447 13.19244697416866 H 0.0 **** 0.06
7750 H 46.10671390945174 112.73912102630291 11.958913968434246 H 0.0 **** 0.06
7751 C 58.45998797000617 148.1188854875191 65.3787853497704 C 0.0 **** -0.24
7752 H 59.33561946768944 147.55739844303997 65.05287130067632 H 0.0 **** 0.06
7753 H 58.414601445596205 149.0653024167579 64.83912872804035 H 0.0 **** 0.06
7754 H 58.530657954163374 148.31218496191718 66.44876302554633 H 0.0 **** 0.06
7755 H 57.56050552891543 147.53990119278478 65.17205925174858 H 0.0 **** 0.06
7756 C 72.57172567788115 162.2868988729631 103.7612062882526 C 0.0 **** -0.24
7757 H 73.1667776462678 162.0723034434414 104.64998589897979 H 0.0 **** 0.06
7758 H 71.53041189005194 162.02722816955162 103.95071854177198 H 0.0 **** 0.06
7759 H 72.94682701263855 161.7006572371984 102.92334659216837 H 0.0 **** 0.06
7760 H 72.64444126969113 163.34885349176415 103.52444682609305 H 0.0 **** 0.06
7761 C 60.38719703401614 12.23519939608147 24.86404673266815 C 0.0 **** -0.24
7762 H 61.325256152719476 11.697305786934692 24.999164179345804 H 0.0 **** 0.06
7763 H 59.56917879594022 11.652189165499323 25.28771456329425 H 0.0 **** 0.06
7764 H 60.20806906933814 12.393134929895695 23.80051312937522 H 0.0 **** 0.06
7765 H 60.44598668751365 13.19903552422062 25.36919311340845 H 0.0 **** 0.06
7766 C 4.969979094637694 148.75321295738055 76.3378072137651 C 0.0 **** -0.24
7767 H 5.552197260346105 149.1134388424153 75.48916740359385 H 0.0 **** 0.06
7768 H 4.274542726645933 149.52927912979814 76.65597809918197 H 0.0 **** 0.06
7769 H 5.642561841943916 148.50709855315193 77.16090101030163 H 0.0 **** 0.06
7770 H 4.414288880492762 147.86287733300625 76.04449333635215 H 0.0 **** 0.06
7771 C 1.2573453411931155 73.43042908339442 118.72945684527338 C 0.0 **** -0.24
7772 H 1.0679104296411026 72.46088117295591 118.26785693922099 H 0.0 **** 0.06
7773 H 0.4419204005104689 73.67288443181994 119.41124623163012 H 0.0 **** 0.06
7774 H 1.3244421172476848 74.19408473134956 117.95558720797192 H 0.0 **** 0.06
7775 H 2.19507039210157 73.39093532630358 119.28377729289531 H 0.0 **** 0.06
7776 C 162.9820871109107 89.17517608061215 154.19349753122745 C 0.0 **** -0.24
7777 H 162.0330214884063 89.43953396146087 154.65919327174237 H 0.0 **** 0.06
7778 H 163.7732959441092 89.80770153422925 154.5966877263553 H 0.0 **** 0.06
7779 H 162.91116452431163 89.32353841867724 153.1151368129752 H 0.0 **** 0.06
7780 H 163.2098464797267 88.12988313121176 154.40157323048294 H 0.0 **** 0.06
7781 C 122.21873664734687 22.425092703229637 45.47106743497497 C 0.0 **** -0.24
7782 H 121.95706897581309 23.427630579408998 45.13583324675234 H 0.0 **** 0.06
7783 H 121.31455995551033 21.89476749850482 45.771012246896845 H 0.0 **** 0.06
7784 H 122.89895511389517 22.49205507408658 46.3209186576624 H 0.0 **** 0.06
7785 H 122.70523445815857 21.88524288968776 44.65817428913307 H 0.0 **** 0.06
7786 C 135.22822939776808 124.0322757728753 75.232410038608 C 0.0 **** -0.24
7787 H 136.24085596909288 124.0005715094988 74.83077781724288 H 0.0 **** 0.06
7788 H 134.8862743886867 125.06728262948482 75.2748224866689 H 0.0 **** 0.06
7789 H 135.22325839079477 123.60615620487414 76.23618920647176 H 0.0 **** 0.06
7790 H 134.56311488620747 123.45571744383838 74.5893560978771 H 0.0 **** 0.06
7791 C 2.0871348753473242 109.67197573607501 59.40121824821222 C 0.0 **** -0.24
7792 H 2.7784288239460935 110.42180615170304 59.018713133081434 H 0.0 **** 0.06
7793 H 1.4264976195897319 109.3434691817991 58.59885857440844 H 0.0 **** 0.06
7794 H 1.4935264786009057 110.10223509513509 60.207104783651445 H 0.0 **** 0.06
7795 H 2.650653007162262 108.81922712458123 59.780763139963724 H 0.0 **** 0.06
7796 C 163.94750387918324 12.140828946286376 155.06849546931983 C 0.0 **** -0.24
7797 H 164.40933248142198 11.877360304137945 154.1176212572596 H 0.0 **** 0.06
7798 H 164.228074118606 13.160092941775744 155.3382054920952 H 0.0 **** 0.06
7799 H 164.28967299935914 11.453260294151612 155.84135302405497 H 0.0 **** 0.06
7800 H 162.86384768826758 12.07437905767604 154.97691037442382 H 0.0 **** 0.06
7801 C 88.87450990303212 42.12544157714342 134.35713859320202 C 0.0 **** -0.24
7802 H 88.21970585322242 42.677142262343295 133.68259489804115 H 0.0 **** 0.06
7803 H 88.60489771195695 42.35067427979271 135.3897792507386 H 0.0 **** 0.06
7804 H 89.90910060142501 42.41710513656892 134.17839682377905 H 0.0 **** 0.06
7805 H 88.76129730381568 41.05566853046764 134.1771614738808 H 0.0 **** 0.06
7806 C 92.27614589485717 36.35382064877032 131.81305057585433 C 0.0 **** -0.24
7807 H 93.09034588907491 37.07445072811211 131.88461748298963 H 0.0 **** 0.06
7808 H 92.22812892429818 35.960062176771515 130.79770096787823 H 0.0 **** 0.06
7809 H 91.33380050015553 36.84555135762335 132.05719456795697 H 0.0 **** 0.06
7810 H 92.45119019232149 35.536306501003935 132.51193703148505 H 0.0 **** 0.06
7811 C 110.02049530645195 46.922987192523465 78.79304401988861 C 0.0 **** -0.24
7812 H 109.11399776939666 47.17657404314669 78.24237248212611 H 0.0 **** 0.06
7813 H 110.85817657725744 46.85036415306527 78.09859517399553 H 0.0 **** 0.06
7814 H 109.88335194416587 45.96608396728962 79.29721771654295 H 0.0 **** 0.06
7815 H 110.22566051775291 47.69676696254713 79.53121488233344 H 0.0 **** 0.06
7816 C 143.3758812447006 30.894720042206757 11.260221281217497 C 0.0 **** -0.24
7817 H 143.88574146508057 30.12940580056204 10.674142889259173 H 0.0 **** 0.06
7818 H 142.8686778896745 30.427821414421715 12.103728587279932 H 0.0 **** 0.06
7819 H 142.64505006321016 31.4046544391245 10.632390980861658 H 0.0 **** 0.06
7820 H 144.1057617322567 31.616673395997054 11.627308505742604 H 0.0 **** 0.06
7821 C 66.15359977589921 30.041123500686197 56.91362264838945 C 0.0 **** -0.24
7822 H 65.0662383713886 30.116022059928696 56.898737449014675 H 0.0 **** 0.06
7823 H 66.46867563121639 29.206870646472623 56.28685190452576 H 0.0 **** 0.06
7824 H 66.49132188146024 29.87548049974687 57.93669418183018 H 0.0 **** 0.06
7825 H 66.58637143942711 30.96604842542395 56.53387572653698 H 0.0 **** 0.06
7826 C 16.988030501498002 100.18848103451174 15.683410740804078 C 0.0 **** -0.24
7827 H 15.931884500102626 100.40558401591963 15.52719271070734 H 0.0 **** 0.06
7828 H 17.592366648564393 100.8771862899572 15.091839006893053 H 0.0 **** 0.06
7829 H 17.197637507540094 99.16418377324598 15.37559390867824 H 0.0 **** 0.06
7830 H 17.23112160273132 100.30643100335419 16.73997675429206 H 0.0 **** 0.06
7831 C 56.24850405772011 127.43137833204113 27.4831627403658 C 0.0 **** -0.24
7832 H 55.89517145602298 126.75685342829803 26.703998843027534 H 0.0 **** 0.06
7833 H 56.68486391824928 126.85061982183205 28.295722156967486 H 0.0 **** 0.06
7834 H 55.41182350399987 128.01785933767502 27.863394089862027 H 0.0 **** 0.06
7835 H 57.0028810485141 128.10138914759352 27.069409095992853 H 0.0 **** 0.06
7836 C 79.30887500027939 25.645344119683813 16.522168917819357 C 0.0 **** -0.24
7837 H 79.24112437780775 24.67413892024493 17.01345247047493 H 0.0 **** 0.06
7838 H 80.25577747405299 25.716418432186913 15.987357436063832 H 0.0 **** 0.06
7839 H 79.25328809651273 26.43569582825492 17.270259445677937 H 0.0 **** 0.06
7840 H 78.48359010483517 25.753701357314583 15.817464885689844 H 0.0 **** 0.06
7841 C 18.212751116893287 146.64823321154017 44.75153833889246 C 0.0 **** -0.24
7842 H 18.950646691837676 147.44284584741996 44.64460357870536 H 0.0 **** 0.06
7843 H 17.63741649507881 146.80803388544552 45.663531764026345 H 0.0 **** 0.06
7844 H 18.72071572167914 145.68543855118435 44.805506681779974 H 0.0 **** 0.06
7845 H 17.542978067531124 146.65724371393708 43.89231658304587 H 0.0 **** 0.06
7846 C 32.41802790513225 128.17886964559963 44.96348924245312 C 0.0 **** -0.24
7847 H 32.3948336921961 127.19073246751566 45.42253729978668 H 0.0 **** 0.06
7848 H 31.694079478403353 128.82599596756964 45.459119543806764 H 0.0 **** 0.06
7849 H 32.16511913346511 128.09432402273956 43.90648716904106 H 0.0 **** 0.06
7850 H 33.41583024913095 128.60354352939595 45.0654093614973 H 0.0 **** 0.06
7851 C 107.4634576956766 116.16959162430297 86.02789994525526 C 0.0 **** -0.24
7852 H 106.48102220099463 116.58121202439645 85.79748658013685 H 0.0 **** 0.06
7853 H 107.99189423257775 116.84580198255733 86.69982372043765 H 0.0 **** 0.06
7854 H 108.03366423883332 116.05214677621305 85.106778144931 H 0.0 **** 0.06
7855 H 107.34587506964087 115.19774477650805 86.50849878898552 H 0.0 **** 0.06
7856 C 25.71611445525167 69.19655676024068 116.22513502556427 C 0.0 **** -0.24
7857 H 24.84023527182012 69.84240288431407 116.27018583060118 H 0.0 **** 0.06
7858 H 25.71048644683765 68.51726143661877 117.07838845409788 H 0.0 **** 0.06
7859 H 26.619151416136617 69.80582070340603 116.2517594480556 H 0.0 **** 0.06
7860 H 25.694599726506766 68.61900545534677 115.30119845843402 H 0.0 **** 0.06
7861 C 149.798550392932 13.276602330650569 89.50022747356934 C 0.0 **** -0.24
7862 H 149.57819594083045 14.336110838054744 89.63436490778696 H 0.0 **** 0.06
7863 H 149.63570973975072 12.999894439509866 88.458546691408 H 0.0 **** 0.06
7864 H 149.14316358177797 12.686247614730036 90.14098377405048 H 0.0 **** 0.06
7865 H 150.8376931353314 13.086247446797785 89.7693196031554 H 0.0 **** 0.06
7866 C 63.08971177146316 27.3530398617022 155.408016902132 C 0.0 **** -0.24
7867 H 63.329585937387094 26.54673933007797 154.71492670573926 H 0.0 **** 0.06
7868 H 62.39042012128476 28.042659303345033 154.93387300535255 H 0.0 **** 0.06
7869 H 64.0020693507453 27.886381111223898 155.67457634866702 H 0.0 **** 0.06
7870 H 62.636154631508674 26.935807719640337 156.3075548221456 H 0.0 **** 0.06
7871 C 147.4873822245347 37.844131784553085 160.92888464526385 C 0.0 **** -0.24
7872 H 146.60649973062823 38.43626386107442 160.6792492251819 H 0.0 **** 0.06
7873 H 147.5187480650094 37.67584462721666 162.00508294721257 H 0.0 **** 0.06
7874 H 148.3849708127721 38.38072104460673 160.61834651388583 H 0.0 **** 0.06
7875 H 147.4395673846779 36.88646999028559 160.41105764867376 H 0.0 **** 0.06
7876 C 33.1801411873011 18.32669531720748 120.13960544345008 C 0.0 **** -0.24
7877 H 32.4228849105169 18.173866401862995 120.9083241360164 H 0.0 **** 0.06
7878 H 33.477600389150666 19.375589006313987 120.12610515210108 H 0.0 **** 0.06
7879 H 32.77055111446768 18.052105897696038 119.16722906361821 H 0.0 **** 0.06
7880 H 34.04843731131942 17.704590562421686 120.35612032175544 H 0.0 **** 0.06
7881 C 134.0635008024781 70.05900821437652 111.24836769811469 C 0.0 **** -0.24
7882 H 134.26892038671895 71.00363985477588 111.75212761008396 H 0.0 **** 0.06
7883 H 133.04246183216253 70.06629374025732 110.86572353962919 H 0.0 **** 0.06
7884 H 134.18165338136305 69.23815621834262 111.95577787339772 H 0.0 **** 0.06
7885 H 134.76165636561964 69.9293586020118 110.42171846290677 H 0.0 **** 0.06
7886 C 17.761033157858407 110.81700185272882 131.77868140529475 C 0.0 **** -0.24
7887 H 18.537028363519966 110.62547612565939 131.03651796971968 H 0.0 **** 0.06
7888 H 16.857665380837176 111.16647112314749 131.27720646321777 H 0.0 **** 0.06
7889 H 18.10770967311163 111.57857455089155 132.4764489704668 H 0.0 **** 0.06
7890 H 17.543583542210285 109.89728998363645 132.32180931714632 H 0.0 **** 0.06
7891 C 66.00252668518658 94.60276351317214 94.13015713878599 C 0.0 **** -0.24
7892 H 65.06940547252901 95.08713054321515 94.41959382544229 H 0.0 **** 0.06
7893 H 66.16721520526546 93.72699139624535 94.75702797607318 H 0.0 **** 0.06
7894 H 66.82851615263951 95.3021705428483 94.2565389884598 H 0.0 **** 0.06
7895 H 65.94350618247816 94.29669656362563 93.08543956860899 H 0.0 **** 0.06
7896 C 40.34071344748584 169.8780270755494 138.08238828440733 C 0.0 **** -0.24
7897 H 41.04911179064035 169.1632806684764 138.50043915210938 H 0.0 **** 0.06
7898 H 40.34142060524873 169.7964327732088 136.9950391778847 H 0.0 **** 0.06
7899 H 40.62957400417292 170.88809086395474 138.37161636977623 H 0.0 **** 0.06
7900 H 39.341088600770064 169.66332299198584 138.46132433540635 H 0.0 **** 0.06
7901 C 25.151915716501037 140.3923665969357 20.621296906942177 C 0.0 **** -0.24
7902 H 24.376408718281766 140.73148484757178 19.93456414206861 H 0.0 **** 0.06
7903 H 25.63177042856543 139.50188489189495 20.215977333582458 H 0.0 **** 0.06
7904 H 24.705575765056693 140.1576468654217 21.587338036976888 H 0.0 **** 0.06
7905 H 25.895512494947212 141.18047041874567 20.745777517004967 H 0.0 **** 0.06
7906 C 152.18899482840794 165.17748839367198 104.56556925468911 C 0.0 **** -0.24
7907 H 151.84933067626167 164.36507978948515 103.92356637845103 H 0.0 **** 0.06
7908 H 152.42225695180053 166.0495010094063 103.95341730854966 H 0.0 **** 0.06
7909 H 153.08112915018188 164.8644937209759 105.10698207400722 H 0.0 **** 0.06
7910 H 151.4032859116274 165.43261512155493 105.2765833418255 H 0.0 **** 0.06
7911 C 104.28348351965462 127.04504118456745 81.16146926698275 C 0.0 **** -0.24
7912 H 105.22762349053599 127.43328095978077 80.78064680058543 H 0.0 **** 0.06
7913 H 103.69160591631137 126.65374976301683 80.33449037408099 H 0.0 **** 0.06
7914 H 103.73376935787451 127.84666102204366 81.65535202454419 H 0.0 **** 0.06
7915 H 104.4810079318193 126.24655776767685 81.8776211800789 H 0.0 **** 0.06
7916 C 15.516733675755404 123.37961475254434 67.3553418412673 C 0.0 **** -0.24
7917 H 15.160612114410469 124.09713711170335 66.6162631736248 H 0.0 **** 0.06
7918 H 16.554453529717193 123.12255738708251 67.14200358778818 H 0.0 **** 0.06
7919 H 14.902884061895634 122.47972176706605 67.31321750875438 H 0.0 **** 0.06
7920 H 15.448124389084569 123.82001954981718 68.35043559912282 H 0.0 **** 0.06
7921 C 107.51571558630246 2.8954539717758507 170.17482679997096 C 0.0 **** -0.24
7922 H 107.58011393698345 3.9518140199304526 169.91442234690783 H 0.0 **** 0.06
7923 H 108.51599777260932 2.5076863875669915 170.36781652867955 H 0.0 **** 0.06
7924 H 107.06434937474984 2.3441957289750235 169.3494171437303 H 0.0 **** 0.06
7925 H 106.90147820732957 2.7780907186523223 171.06803479136252 H 0.0 **** 0.06
7926 C 80.95278983181535 101.68761444860078 94.02434833231877 C 0.0 **** -0.24
7927 H 81.27758375632774 102.62259376001566 93.56812495405359 H 0.0 **** 0.06
7928 H 79.92719090047257 101.79247099937459 94.37820016514928 H 0.0 **** 0.06
7929 H 81.60530123342052 101.44693721609383 94.86334208182583 H 0.0 **** 0.06
7930 H 81.00194009169512 100.88707861158423 93.28520230294598 H 0.0 **** 0.06
7931 C 105.00150334435867 88.95515450837543 157.582847681961 C 0.0 **** -0.24
7932 H 105.38951622018035 88.05017222531794 157.11394332357074 H 0.0 **** 0.06
7933 H 104.76047571403947 88.74737786161023 158.62607190178684 H 0.0 **** 0.06
7934 H 104.10285189529515 89.27923835908602 157.05930935808146 H 0.0 **** 0.06
7935 H 105.75461588564744 89.74115549178356 157.53293654584252 H 0.0 **** 0.06
7936 C 46.44467394541857 23.471828881548078 84.45342106445678 C 0.0 **** -0.24
7937 H 47.14851222487266 22.676370378470523 84.20993880147817 H 0.0 **** 0.06
7938 H 45.89779207812842 23.760352661154798 83.55676428115648 H 0.0 **** 0.06
7939 H 46.990319018862095 24.332712350841092 84.83976067060003 H 0.0 **** 0.06
7940 H 45.74372217529597 23.116903628704392 85.20952812766465 H 0.0 **** 0.06
7941 C 31.75472633385644 7.098207247702561 2.424676729241696 C 0.0 **** -0.24
7942 H 30.898567916556104 6.991632388551068 1.7581883482322098 H 0.0 **** 0.06
7943 H 31.581797577910834 7.929975159540781 3.1074101799011373 H 0.0 **** 0.06
7944 H 32.65086531930069 7.292538179406996 1.8356736876202717 H 0.0 **** 0.06
7945 H 31.886677757036708 6.179404574299163 2.9962155808154307 H 0.0 **** 0.06
7946 C 148.16487390484414 75.88293324855381 154.3700236351113 C 0.0 **** -0.24
7947 H 147.28708847519107 76.17609436775534 154.94569843541456 H 0.0 **** 0.06
7948 H 148.94861023439734 76.63020336988428 154.49747534666136 H 0.0 **** 0.06
7949 H 147.89940728494827 75.81132752512137 153.31478939215407 H 0.0 **** 0.06
7950 H 148.5228099725004 74.91544142004136 154.72127924363144 H 0.0 **** 0.06
7951 C 31.55268812476784 23.715764428027853 51.98834832784564 C 0.0 **** -0.24
7952 H 31.320098079085824 24.635006065333727 51.45038468665443 H 0.0 **** 0.06
7953 H 31.623044149299048 22.890168854747685 51.28061663732454 H 0.0 **** 0.06
7954 H 30.764155376218383 23.50961327414268 52.71163732432565 H 0.0 **** 0.06
7955 H 32.50277462146737 23.830350999969255 52.510302114023844 H 0.0 **** 0.06
7956 C 35.27804242063735 157.68808833245663 80.01165550150685 C 0.0 **** -0.24
7957 H 34.422621241524325 158.04222627303884 80.58736560591198 H 0.0 **** 0.06
7958 H 35.84308197575011 156.96828389032518 80.60414774665284 H 0.0 **** 0.06
7959 H 35.919222858390256 158.53325140183964 79.7583370087505 H 0.0 **** 0.06
7960 H 34.927834985891565 157.21157080201831 79.0958908005794 H 0.0 **** 0.06
7961 C 110.08684249854647 99.3223067600486 106.99373064947275 C 0.0 **** -0.24
7962 H 109.44567097917493 100.07098388019799 106.52942491800732 H 0.0 **** 0.06
7963 H 111.08732132403216 99.73482008455977 107.12868655482615 H 0.0 **** 0.06
7964 H 110.13976629290951 98.44209490745101 106.35334300165263 H 0.0 **** 0.06
7965 H 109.67611690847872 99.04263887271051 107.9633432103983 H 0.0 **** 0.06
7966 C 156.20944536523064 96.25734052442488 127.90951075396751 C 0.0 **** -0.24
7967 H 156.12850414178683 95.4310881364409 127.20333819025805 H 0.0 **** 0.06
7968 H 156.5956520511782 95.8859656678502 128.85954251104872 H 0.0 **** 0.06
7969 H 155.22647433674018 96.70008366078179 128.06421564683623 H 0.0 **** 0.06
7970 H 156.8891849034797 97.01090181937678 127.51061008262391 H 0.0 **** 0.06
7971 C 69.48227218474909 54.08822559414344 59.26787955708622 C 0.0 **** -0.24
7972 H 69.326527867984 55.16767837310422 59.26380161682562 H 0.0 **** 0.06
7973 H 69.24163656842529 53.69086620589283 60.25391160551811 H 0.0 **** 0.06
7974 H 70.525489392547 53.87210418822153 59.03345338036519 H 0.0 **** 0.06
7975 H 68.83821762056868 53.62576137301322 58.521327690595484 H 0.0 **** 0.06
7976 C 100.79858323091904 128.00556876708205 17.75303225630458 C 0.0 **** -0.24
7977 H 100.91957703816993 127.32627415486877 16.90916762507692 H 0.0 **** 0.06
7978 H 101.74560934040252 128.50583400048117 17.955559860122293 H 0.0 **** 0.06
7979 H 100.49074694369685 127.43873112693447 18.632809017819 H 0.0 **** 0.06
7980 H 100.0376874119863 128.74876007610413 17.515170091245466 H 0.0 **** 0.06
7981 C 50.31809336498681 124.09028922213525 136.44327380397866 C 0.0 **** -0.24
7982 H 50.234286633567336 123.00422802941341 136.41397050823366 H 0.0 **** 0.06
7983 H 49.377306876994695 124.53587863964839 136.1192459431789 H 0.0 **** 0.06
7984 H 51.120431510703426 124.41077260549383 135.7791216597959 H 0.0 **** 0.06
7985 H 50.53978387463326 124.4110415067558 137.4618048599896 H 0.0 **** 0.06
7986 C 95.37067969314674 32.10280860348385 34.43745412872755 C 0.0 **** -0.24
7987 H 95.21974964679893 33.18043201439275 34.48998082975169 H 0.0 **** 0.06
7988 H 94.92387578109472 31.717018863896044 33.51989879551698 H 0.0 **** 0.06
7989 H 94.90031716700136 31.627682746940422 35.29781374793873 H 0.0 **** 0.06
7990 H 96.43862895956158 31.885197029560942 34.43985120116196 H 0.0 **** 0.06
7991 C 9.1497410098724 112.1393289310598 131.9433121011239 C 0.0 **** -0.24
7992 H 9.753777123023475 111.23144562621621 131.9454315654517 H 0.0 **** 0.06
7993 H 8.226918421118668 111.96273819589419 132.49643811262843 H 0.0 **** 0.06
7994 H 8.911263702884362 112.41403617546842 130.91615453337286 H 0.0 **** 0.06
7995 H 9.708020268220537 112.94710448399059 132.41516173284953 H 0.0 **** 0.06
7996 C 6.681829463210306 65.27332320565245 75.40924048306883 C 0.0 **** -0.24
7997 H 5.888353306980889 65.55705223084504 76.10105811219869 H 0.0 **** 0.06
7998 H 7.553087104613837 65.90748074016133 75.57743254212618 H 0.0 **** 0.06
7999 H 6.332920514685952 65.39914953254487 74.38454762610573 H 0.0 **** 0.06
8000 H 6.9531029933577315 64.23127087825003 75.57712077098165 H 0.0 **** 0.06
8001 C 133.0216439358262 60.33917479263397 3.094779237983907 C 0.0 **** -0.24
8002 H 133.6006714011381 60.14924132194167 2.1909370719773236 H 0.0 **** 0.06
8003 H 132.63928378506017 61.360399489033966 3.0721063073334562 H 0.0 **** 0.06
8004 H 133.65920495847504 60.20910791514456 3.9685805323599794 H 0.0 **** 0.06
8005 H 132.1869155997638 59.64037694237942 3.1450717918376583 H 0.0 **** 0.06
8006 C 24.40247199205084 131.56192658448248 149.3523360392638 C 0.0 **** -0.24
8007 H 23.953255005286792 131.31712918180364 150.31533009051452 H 0.0 **** 0.06
8008 H 23.642642799462493 131.50843851731605 148.5729158711521 H 0.0 **** 0.06
8009 H 25.199337104501325 130.8513484159442 149.13390337062933 H 0.0 **** 0.06
8010 H 24.814388513733668 132.56996565900118 149.39083494856305 H 0.0 **** 0.06
8011 C 37.787200508283775 140.6858867315314 64.79578205232586 C 0.0 **** -0.24
8012 H 38.21974493750088 140.78226860390828 63.80049163978461 H 0.0 **** 0.06
8013 H 37.58993500210204 139.63535540619944 65.00621589833325 H 0.0 **** 0.06
8014 H 36.85459781012972 141.24795632529384 64.84170759154036 H 0.0 **** 0.06
8015 H 38.485186756261356 141.07999507884335 65.53538129018068 H 0.0 **** 0.06
8016 C 72.39922362540909 140.25705751826146 16.773079612060116 C 0.0 **** -0.24
8017 H 72.55852775259171 141.32087368092525 16.949472794414362 H 0.0 **** 0.06
8018 H 72.68579113367954 139.6948906188614 17.661718243823685 H 0.0 **** 0.06
8019 H 73.00538823843075 139.93451252514126 15.926907432823725 H 0.0 **** 0.06
8020 H 71.3462786875412 140.0793526969892 16.553755315753904 H 0.0 **** 0.06
8021 C 92.73833339899826 94.6206264911471 136.689269347784 C 0.0 **** -0.24
8022 H 92.80100487066377 95.70878120116913 136.72217567439455 H 0.0 **** 0.06
8023 H 93.33027907870473 94.24698793895931 135.85327069236178 H 0.0 **** 0.06
8024 H 91.6983015865548 94.32022675932643 136.56016462896463 H 0.0 **** 0.06
8025 H 93.12307479195087 94.20603006559764 137.62090395571417 H 0.0 **** 0.06
8026 C 46.91979704998043 44.357489582818616 26.466777295654396 C 0.0 **** -0.24
8027 H 46.7303761111791 44.6608047593442 25.43715659181919 H 0.0 **** 0.06
8028 H 45.9909762003921 44.403203492615134 27.03616844242967 H 0.0 **** 0.06
8029 H 47.65392140484559 45.02789790406314 26.914227084162974 H 0.0 **** 0.06
8030 H 47.30486469340485 43.337762319648235 26.47944255304182 H 0.0 **** 0.06
8031 C 116.62911517578297 58.25202464773571 140.38911647337233 C 0.0 **** -0.24
8032 H 116.75139437162949 57.767734001669 139.41976329611478 H 0.0 **** 0.06
8033 H 117.18875543355716 57.698957156277345 141.1437039947525 H 0.0 **** 0.06
8034 H 115.57255363627493 58.26699229447223 140.65588389430772 H 0.0 **** 0.06
8035 H 117.00443875812147 59.27401333247681 140.33422085865095 H 0.0 **** 0.06
8036 C 84.65364577030965 59.46477899712261 27.450170250461497 C 0.0 **** -0.24
8037 H 84.15179830828717 60.1383842726317 26.75560402589838 H 0.0 **** 0.06
8038 H 84.58179063520122 59.86670637786847 28.461373710201315 H 0.0 **** 0.06
8039 H 85.70272827767232 59.37012119302403 27.16961191084357 H 0.0 **** 0.06
8040 H 84.17843320420435 58.48486870651732 27.41429542569705 H 0.0 **** 0.06
8041 C 95.30299498150322 159.0641061065801 22.33331017805532 C 0.0 **** -0.24
8042 H 96.15448495995696 158.71695434145533 22.918170537336934 H 0.0 **** 0.06
8043 H 95.42874339016987 158.76152560567584 21.294293079881932 H 0.0 **** 0.06
8044 H 95.24027085488825 160.15088174194855 22.3916590958044 H 0.0 **** 0.06
8045 H 94.3869776175415 158.6262594793773 22.73087743785728 H 0.0 **** 0.06
8046 C 73.03651566193007 37.569424320879065 160.7648004689645 C 0.0 **** -0.24
8047 H 73.31622800092113 38.26544182760033 161.5562395692009 H 0.0 **** 0.06
8048 H 72.09504194638929 37.88829096703401 160.3178905442053 H 0.0 **** 0.06
8049 H 72.9198598052892 36.56985985685385 161.1856811266179 H 0.0 **** 0.06
8050 H 73.81543368477477 37.55447827680591 160.00264792098463 H 0.0 **** 0.06
8051 C 143.95185932910374 23.14650392866548 41.097391614817695 C 0.0 **** -0.24
8052 H 143.29446557946198 23.276341340960556 40.23751377580459 H 0.0 **** 0.06
8053 H 143.5558857596398 22.36148868657945 41.741238003690455 H 0.0 **** 0.06
8054 H 144.00959352392096 24.08100623649738 41.654906068625394 H 0.0 **** 0.06
8055 H 144.94805963771012 22.86687921308286 40.75376657963125 H 0.0 **** 0.06
8056 C 71.90427537103601 33.91157780360072 170.75953696503976 C 0.0 **** -0.24
8057 H 72.69977063073559 33.284052691673594 170.35780234167936 H 0.0 **** 0.06
8058 H 70.9924167411552 33.75457511034523 170.18280288701385 H 0.0 **** 0.06
8059 H 72.20015161278741 34.95808914516431 170.6947803931993 H 0.0 **** 0.06
8060 H 71.72537081947442 33.648448250277056 171.8016147733517 H 0.0 **** 0.06
8061 C 15.671000780491653 67.51180568404519 100.43397652381245 C 0.0 **** -0.24
8062 H 14.997551108632905 68.27936924828487 100.05328913812602 H 0.0 **** 0.06
8063 H 16.18349846415836 67.88597620416175 101.32053940734463 H 0.0 **** 0.06
8064 H 16.404585561655892 67.25978291041119 99.66846162291418 H 0.0 **** 0.06
8065 H 15.097481674593524 66.62169435394446 100.69384929744194 H 0.0 **** 0.06
8066 C 105.2528649850336 95.52988539870711 119.59361808364125 C 0.0 **** -0.24
8067 H 106.2587335268091 95.38292116144805 119.19942372422574 H 0.0 **** 0.06
8068 H 105.26867357556989 95.41561089517154 120.67820909155358 H 0.0 **** 0.06
8069 H 104.58135465919105 94.78979182214272 119.15940898644641 H 0.0 **** 0.06
8070 H 104.90544915531055 96.53054191659274 119.33841829415249 H 0.0 **** 0.06
8071 C 62.933516598828504 76.80565390893784 78.88687165248659 C 0.0 **** -0.24
8072 H 62.14972767206402 76.11994035942763 79.20594841760389 H 0.0 **** 0.06
8073 H 63.774940539151416 76.74304502352034 79.57763940816015 H 0.0 **** 0.06
8074 H 62.54437473491947 77.82318615769812 78.87869344459244 H 0.0 **** 0.06
8075 H 63.265263223548246 76.53564682360644 77.88465135913823 H 0.0 **** 0.06
8076 C 47.94962832922586 97.13378515094985 156.85487967587426 C 0.0 **** -0.24
8077 H 47.68728617346858 97.8677331480367 156.09262569722796 H 0.0 **** 0.06
8078 H 47.039401085667265 96.72531623499916 157.29329007694753 H 0.0 **** 0.06
8079 H 48.543086132776594 97.61583829283518 157.63259416414422 H 0.0 **** 0.06
8080 H 48.52856603927681 96.32956482376841 156.40097112273963 H 0.0 **** 0.06
8081 C 143.17387899367063 23.075212993780198 90.10014623599685 C 0.0 **** -0.24
8082 H 143.84922194723868 22.235863279102055 89.93301111550772 H 0.0 **** 0.06
8083 H 142.92581535033523 23.136910244464516 91.15910658702623 H 0.0 **** 0.06
8084 H 142.26211665225577 22.92869072860107 89.52061637614975 H 0.0 **** 0.06
8085 H 143.65901817678522 23.999795907233526 89.78552642605388 H 0.0 **** 0.06
8086 C 165.21894103690568 31.76451219390735 72.13783291496583 C 0.0 **** -0.24
8087 H 165.29548575941743 31.969985818814138 73.20507639776743 H 0.0 **** 0.06
8088 H 165.02339085963746 30.702588355401573 71.9847737459339 H 0.0 **** 0.06
8089 H 166.15378038449305 32.03571316072161 71.64815486638199 H 0.0 **** 0.06
8090 H 164.40340823096673 32.34937592208453 71.71245443993229 H 0.0 **** 0.06
8091 C 130.92036665756893 0.0750515808006611 65.24483684905499 C 0.0 **** -0.24
8092 H 130.87286654922997 -1.012635441615572 65.28941087458384 H 0.0 **** 0.06
8093 H 130.64485171257283 0.4101406655371349 64.24485984599858 H 0.0 **** 0.06
8094 H 131.93418276409463 0.4034841270561529 65.47324688170715 H 0.0 **** 0.06
8095 H 130.22877224856896 0.49787284990610914 65.9734310626186 H 0.0 **** 0.06
8096 C 11.114023959252307 80.59716554973394 138.09595002119465 C 0.0 **** -0.24
8097 H 11.480814546151834 80.80506855075103 137.09000457696987 H 0.0 **** 0.06
8098 H 10.235965992783349 79.95406506825543 138.0359319819018 H 0.0 **** 0.06
8099 H 10.84663667012029 81.53357887856562 138.58496564819274 H 0.0 **** 0.06
8100 H 11.8933374252357 80.09597485320114 138.66980504198546 H 0.0 **** 0.06
8101 C 136.13881869872984 161.48493939550147 68.95324330619829 C 0.0 **** -0.24
8102 H 136.94980761508324 160.86156737605788 68.57656109231536 H 0.0 **** 0.06
8103 H 135.69307073340534 162.03823681899635 68.12688691445356 H 0.0 **** 0.06
8104 H 136.53224782737786 162.1846974321161 69.69083086478179 H 0.0 **** 0.06
8105 H 135.3826562207163 160.8533797690183 69.41913269100837 H 0.0 **** 0.06
8106 C 90.24815453513976 28.980375109760075 109.13220152875309 C 0.0 **** -0.24
8107 H 89.583865279996 29.107760522675505 108.27733842125502 H 0.0 **** 0.06
8108 H 90.33274923593336 29.92494360993129 109.670403438754 H 0.0 **** 0.06
8109 H 91.23296786709395 28.67016558821308 108.7833678581608 H 0.0 **** 0.06
8110 H 89.84182477900801 28.218173299236526 109.79712687533942 H 0.0 **** 0.06
8111 C 61.50481278177858 7.595892784420322 96.8332410654742 C 0.0 **** -0.24
8112 H 61.651623336834405 8.162565576870563 97.7524645309112 H 0.0 **** 0.06
8113 H 62.063109065380445 6.660645880060308 96.88947017591852 H 0.0 **** 0.06
8114 H 61.86075479168568 8.180942162703815 95.9849340989052 H 0.0 **** 0.06
8115 H 60.444076702018606 7.379230662715891 96.70516417280402 H 0.0 **** 0.06
8116 C 145.45489656372746 128.3373821165294 136.26451657295823 C 0.0 **** -0.24
8117 H 146.44557679907817 128.31860267674682 136.7214074322304 H 0.0 **** 0.06
8118 H 144.7825053253926 128.93261831235128 136.88247133172948 H 0.0 **** 0.06
8119 H 145.07247983879395 127.3198067276887 136.18506244092555 H 0.0 **** 0.06
8120 H 145.52251174083415 128.77879481424756 135.2704485728842 H 0.0 **** 0.06
8121 C 130.4223788456176 26.882522016176154 43.55899736540681 C 0.0 **** -0.24
8122 H 130.5469826774453 27.7399821178019 42.89759336822209 H 0.0 **** 0.06
8123 H 129.36946770491502 26.605426313128305 43.600641803458984 H 0.0 **** 0.06
8124 H 130.76957867122962 27.142431463854933 44.55925811123103 H 0.0 **** 0.06
8125 H 131.00534606168304 26.04277082246125 43.179622397114 H 0.0 **** 0.06
8126 C 105.02965753089501 25.25111966583006 8.761921571830797 C 0.0 **** -0.24
8127 H 106.11461506352273 25.21249834036695 8.658259785035739 H 0.0 **** 0.06
8128 H 104.588447703409 24.36710271104056 8.301723688206778 H 0.0 **** 0.06
8129 H 104.64979962286918 26.146338864224106 8.26908614763191 H 0.0 **** 0.06
8130 H 104.76854515898225 25.27971713054447 9.8199942114883 H 0.0 **** 0.06
8131 C 80.9646853477086 61.15777805557069 52.75071523899945 C 0.0 **** -0.24
8132 H 80.78118332199709 62.226666456727514 52.6444949019067 H 0.0 **** 0.06
8133 H 81.88104639760772 61.001202853564294 53.321383152444554 H 0.0 **** 0.06
8134 H 81.07016255651406 60.70725563783431 51.7633863590259 H 0.0 **** 0.06
8135 H 80.12756692370314 60.695429875361285 53.273142335931325 H 0.0 **** 0.06
8136 C 101.15098716038435 26.979763587913915 18.099115850209586 C 0.0 **** -0.24
8137 H 101.55976225043645 26.051720082108652 17.70148119798408 H 0.0 **** 0.06
8138 H 101.12879121268693 27.734324891279243 17.311901263733887 H 0.0 **** 0.06
8139 H 101.7761990120676 27.329360427871123 18.92109905776784 H 0.0 **** 0.06
8140 H 100.13793585519323 26.804450929576433 18.46285853920358 H 0.0 **** 0.06
8141 C 161.05780881079266 43.70567632673527 28.577469450581134 C 0.0 **** -0.24
8142 H 161.15909533338885 43.95843003055518 27.52244965662416 H 0.0 **** 0.06
8143 H 161.58960959387176 44.44256970216867 29.180710124481067 H 0.0 **** 0.06
8144 H 161.48021333068144 42.71641180954134 28.755818387456145 H 0.0 **** 0.06
8145 H 160.00319129486542 43.70481254887565 28.850836057474964 H 0.0 **** 0.06
8146 C 130.8180933186786 64.5531646312437 83.65103237443395 C 0.0 **** -0.24
8147 H 130.092458259025 65.30140671420861 83.33257559116403 H 0.0 **** 0.06
8148 H 130.65013299987922 64.30698682083352 84.69986030263995 H 0.0 **** 0.06
8149 H 131.8263905997956 64.94861460260182 83.5273751685676 H 0.0 **** 0.06
8150 H 130.70394139986914 63.654530456875136 83.04365260550757 H 0.0 **** 0.06
8151 C 106.40589426393058 78.57556989602446 4.153020059526511 C 0.0 **** -0.24
8152 H 107.13872215000401 78.38802828289288 4.937811508167044 H 0.0 **** 0.06
8153 H 105.68653886960425 77.75710169773498 4.124092343365476 H 0.0 **** 0.06
8154 H 106.91305871805821 78.64744254568075 3.190797253749679 H 0.0 **** 0.06
8155 H 105.88524324397125 79.51059380970811 4.359841194385183 H 0.0 **** 0.06
8156 C 45.79182432742056 61.77070353939254 81.38738120493343 C 0.0 **** -0.24
8157 H 46.787124025520924 62.21112284189232 81.452738340623 H 0.0 **** 0.06
8158 H 45.752818336860955 61.084514469581066 80.54146733588254 H 0.0 **** 0.06
8159 H 45.054277125844166 62.560502556039665 81.25092690633483 H 0.0 **** 0.06
8160 H 45.57554558882512 61.22665632543513 82.30720474334333 H 0.0 **** 0.06
8161 C 151.79654236789276 49.21716264866933 58.385612245250385 C 0.0 **** -0.24
8162 H 151.60407144159834 48.38782447289273 57.70525108559005 H 0.0 **** 0.06
8163 H 152.54726972117626 49.877174972530725 57.95080267428622 H 0.0 **** 0.06
8164 H 152.16124251770248 48.828534602056465 59.33702448946245 H 0.0 **** 0.06
8165 H 150.87438236283538 49.77423447299694 58.55063069291677 H 0.0 **** 0.06
8166 C 14.885489555126867 118.57001126114287 57.63008758190557 C 0.0 **** -0.24
8167 H 14.809532694863606 117.77929311748221 56.88271578778189 H 0.0 **** 0.06
8168 H 13.962213759452254 119.14966277364647 57.6385802533982 H 0.0 **** 0.06
8169 H 15.722805311682407 119.22252837627593 57.38361058495563 H 0.0 **** 0.06
8170 H 15.04676796527437 118.12729963103203 58.612443343312265 H 0.0 **** 0.06
8171 C 4.51847315261972 171.66430670131527 132.695221802734 C 0.0 **** -0.24
8172 H 4.930398962104277 172.1664695831392 133.57030564968915 H 0.0 **** 0.06
8173 H 4.245933822314498 172.40769050305198 131.94492248214527 H 0.0 **** 0.06
8174 H 3.632872502011537 171.09816561791217 132.98435837041674 H 0.0 **** 0.06
8175 H 5.264395485491917 170.98619457525854 132.28080896599675 H 0.0 **** 0.06
8176 C 84.3444293042024 39.27896941197463 7.603513761185241 C 0.0 **** -0.24
8177 H 83.26635453649241 39.23621082577813 7.758722283011451 H 0.0 **** 0.06
8178 H 84.56686213373419 39.08403545870567 6.55403598775581 H 0.0 **** 0.06
8179 H 84.83017216145826 38.52665036698147 8.224793980622422 H 0.0 **** 0.06
8180 H 84.71095778005574 40.26785522523818 7.8753314472317015 H 0.0 **** 0.06
8181 C 21.54438972421704 2.944174409687669 89.96979850563491 C 0.0 **** -0.24
8182 H 20.842159163429187 2.648651734743332 89.1895384171774 H 0.0 **** 0.06
8183 H 21.60554416752288 4.031908728526247 90.00979077927803 H 0.0 **** 0.06
8184 H 22.527835595270375 2.532342556888132 89.7475174334482 H 0.0 **** 0.06
8185 H 21.198921254102487 2.564004266308835 90.93118364400732 H 0.0 **** 0.06
8186 C 100.74816088424294 100.79188966035548 164.46779098453172 C 0.0 **** -0.24
8187 H 101.33448563517968 100.51263364093046 165.3438027290489 H 0.0 **** 0.06
8188 H 100.0154338553975 101.54791205599668 164.747244702045 H 0.0 **** 0.06
8189 H 100.23370465036498 99.9128110670012 164.0802064350952 H 0.0 **** 0.06
8190 H 101.41114727121067 101.19301991571564 163.70018444605978 H 0.0 **** 0.06
8191 C 47.868100962640824 13.79141475717553 93.2073101868429 C 0.0 **** -0.24
8192 H 48.015764794291556 14.76971597117516 93.66405551581397 H 0.0 **** 0.06
8193 H 47.41346807986464 13.11653651314419 93.93373467108034 H 0.0 **** 0.06
8194 H 48.829933485824284 13.389265044712758 92.89065585862005 H 0.0 **** 0.06
8195 H 47.21207339732541 13.889870345899354 92.34268454369732 H 0.0 **** 0.06
8196 C 74.00294969009008 88.96856587392756 99.32288550382896 C 0.0 **** -0.24
8197 H 73.26256160478052 88.78458634780242 98.54440030744306 H 0.0 **** 0.06
8198 H 75.00383168159222 88.84344556480653 98.90893097586121 H 0.0 **** 0.06
8199 H 73.85581577248587 88.26080280232298 100.13892180245011 H 0.0 **** 0.06
8200 H 73.8892635847836 89.98546573988557 99.69834430802723 H 0.0 **** 0.06
8201 C 32.63103666623719 92.84675243460137 3.768800679867269 C 0.0 **** -0.24
8202 H 32.78326550300791 91.85131822151769 3.3517020203286734 H 0.0 **** 0.06
8203 H 32.70673651178181 93.59003441040275 2.9746875627794225 H 0.0 **** 0.06
8204 H 33.392951948145935 93.04442130971705 4.524303404826043 H 0.0 **** 0.06
8205 H 31.643611589957672 92.90202396524259 4.227064752999212 H 0.0 **** 0.06
8206 C 26.228059460460543 19.037498072637845 13.869712162649762 C 0.0 **** -0.24
8207 H 26.619858385874522 18.45142128345941 14.700720447385038 H 0.0 **** 0.06
8208 H 25.764528546539083 18.370647946489782 13.141790997348835 H 0.0 **** 0.06
8209 H 27.043253626829483 19.583461770431654 13.39523003757381 H 0.0 **** 0.06
8210 H 25.48585122363295 19.74304253430057 14.241751276506534 H 0.0 **** 0.06
8211 C 70.12541440841551 86.27669604060111 75.47129408255952 C 0.0 **** -0.24
8212 H 70.32031873660803 85.36198792394424 74.91106505682255 H 0.0 **** 0.06
8213 H 71.06998977365852 86.70936735926693 75.7997542359294 H 0.0 **** 0.06
8214 H 69.50895120616269 86.04626923055758 76.34009946130325 H 0.0 **** 0.06
8215 H 69.60139476040366 86.988095825963 74.83289299953634 H 0.0 **** 0.06
8216 C 44.28173396768125 41.24133333803999 159.47498543859442 C 0.0 **** -0.24
8217 H 44.5439159318089 41.10255124839851 160.5243125381226 H 0.0 **** 0.06
8218 H 43.866905889137456 40.31396044444186 159.07878928309657 H 0.0 **** 0.06
8219 H 45.17509096794194 41.50940696792597 158.91022796288206 H 0.0 **** 0.06
8220 H 43.54374489937214 42.037840879806936 159.3869512426046 H 0.0 **** 0.06
8221 C 84.0666996808227 78.83884888889396 35.83334968081451 C 0.0 **** -0.24
8222 H 83.11356148527287 79.09916718539125 36.29328678598054 H 0.0 **** 0.06
8223 H 84.8453105582783 78.82394206645814 36.59626323038081 H 0.0 **** 0.06
8224 H 84.3165014802633 79.57861632141925 35.072599130339 H 0.0 **** 0.06
8225 H 83.99152217675356 77.85418793290027 35.37256197072679 H 0.0 **** 0.06
8226 C 127.61139216208016 132.2757650170022 71.40602902302118 C 0.0 **** -0.24
8227 H 126.98729460531436 131.45412071403175 71.05606183122768 H 0.0 **** 0.06
8228 H 127.02047327437043 133.1904544287733 71.44398044260151 H 0.0 **** 0.06
8229 H 128.44913902947167 132.41139662502897 70.72177435773006 H 0.0 **** 0.06
8230 H 127.99082042671677 132.04595788945733 72.40204964609146 H 0.0 **** 0.06
8231 C 32.75586977428789 91.51404285500028 60.4846481923892 C 0.0 **** -0.24
8232 H 32.42442443945659 91.52917630640903 59.44624308783564 H 0.0 **** 0.06
8233 H 32.04901446879434 92.07170611110774 61.099220776644216 H 0.0 **** 0.06
8234 H 33.7423949709644 91.97159874083715 60.558505020432776 H 0.0 **** 0.06
8235 H 32.8066950649647 90.48264677081062 60.83471549287454 H 0.0 **** 0.06
8236 C 115.18389388370937 83.54187865575807 152.6561201934996 C 0.0 **** -0.24
8237 H 115.4096962998729 82.91729304573869 151.79216750206916 H 0.0 **** 0.06
8238 H 115.16412731866629 82.92510239521083 153.55527509969164 H 0.0 **** 0.06
8239 H 114.21162122442166 84.01462270009134 152.51812699683938 H 0.0 **** 0.06
8240 H 115.94983368768618 84.31000640730281 152.7597307138306 H 0.0 **** 0.06
8241 C 142.78130158007798 159.92195284486604 56.6323761015108 C 0.0 **** -0.24
8242 H 143.66104361738172 159.36603927584795 56.95617886417155 H 0.0 **** 0.06
8243 H 141.88914627714317 159.48266238209393 57.080976198734234 H 0.0 **** 0.06
8244 H 142.702369447209 159.8741286222865 55.54654152302342 H 0.0 **** 0.06
8245 H 142.8726441751985 160.96181877897527 56.94580639495328 H 0.0 **** 0.06
8246 C 165.5636918590697 103.0193183944273 14.965152442231982 C 0.0 **** -0.24
8247 H 166.08407152628143 103.6190132151633 15.711955167247368 H 0.0 **** 0.06
8248 H 164.5255902053383 103.34637348901387 14.89710731969572 H 0.0 **** 0.06
8249 H 165.59648774534764 101.96937992423784 15.254267979411196 H 0.0 **** 0.06
8250 H 166.0479127446627 103.14612584854092 13.996641625863106 H 0.0 **** 0.06
8251 C 101.0564322130299 63.84027072835514 46.74521531533867 C 0.0 **** -0.24
8252 H 100.17568840889581 63.65689692104999 46.13034657841334 H 0.0 **** 0.06
8253 H 101.8338998254969 63.11814695211763 46.489630425187045 H 0.0 **** 0.06
8254 H 100.79331648139663 63.733398968627654 47.797150531540865 H 0.0 **** 0.06
8255 H 101.42345381734091 64.84985737857704 46.5628061634867 H 0.0 **** 0.06
8256 C 129.4992390248355 83.41428151273176 105.5330164673735 C 0.0 **** -0.24
8257 H 128.775883215678 83.35433770997764 104.71921285032641 H 0.0 **** 0.06
8258 H 130.0353265966466 84.3618601348208 105.47126629798572 H 0.0 **** 0.06
8259 H 130.2071048462912 82.58949835050902 105.45098051017595 H 0.0 **** 0.06
8260 H 128.9778624602481 83.3521988299633 106.48731954049384 H 0.0 **** 0.06
8261 C 21.82870024270221 43.782347106055795 151.0818855607632 C 0.0 **** -0.24
8262 H 21.176676309278037 43.003266047684406 150.68682774003054 H 0.0 **** 0.06
8263 H 21.228569629558393 44.52914177045878 151.60147785664392 H 0.0 **** 0.06
8264 H 22.36770106098743 44.25533602969068 150.26000307128106 H 0.0 **** 0.06
8265 H 22.542334590844348 43.339494762775956 151.7771970198273 H 0.0 **** 0.06
8266 C 33.259698719920664 118.23773281343432 56.685566316136956 C 0.0 **** -0.24
8267 H 34.320066036837545 117.99088991165019 56.73968584949161 H 0.0 **** 0.06
8268 H 32.74124053197636 117.48499698228346 56.09059732781442 H 0.0 **** 0.06
8269 H 33.139082842820414 119.21601582670041 56.219918004777796 H 0.0 **** 0.06
8270 H 32.84001414232 118.25914845905919 57.69143331416376 H 0.0 **** 0.06
8271 C 73.69481796721942 60.61274839747824 171.74676134580724 C 0.0 **** -0.24
8272 H 74.60264289643078 60.474181398666644 171.15970405181582 H 0.0 **** 0.06
8273 H 72.89859774416333 60.987357559462 171.1015671221726 H 0.0 **** 0.06
8274 H 73.88390356457066 61.33006185323717 172.54473578075266 H 0.0 **** 0.06
8275 H 73.39333076922986 59.658649953278996 172.17969185743559 H 0.0 **** 0.06
8276 C 132.26699178007647 148.67893673237174 105.8395453668511 C 0.0 **** -0.24
8277 H 131.4516041829876 148.39021984728038 106.5016388416191 H 0.0 **** 0.06
8278 H 132.28577514441506 149.76444662877313 105.73863621752977 H 0.0 **** 0.06
8279 H 132.11645427977103 148.2256458629674 104.8594433051355 H 0.0 **** 0.06
8280 H 133.21340192767883 148.33605152627018 106.25742184004017 H 0.0 **** 0.06
8281 C 168.0451569534041 72.505183651896 131.19128547633557 C 0.0 **** -0.24
8282 H 167.3700148521473 71.89507413396547 131.79231104751443 H 0.0 **** 0.06
8283 H 167.8594592013122 72.31603081676343 130.13306867896907 H 0.0 **** 0.06
8284 H 169.0772630963309 72.2486174042321 131.43022659246807 H 0.0 **** 0.06
8285 H 167.87170406882086 73.55899410998353 131.40807059157166 H 0.0 **** 0.06
8286 C 127.85466904479688 163.69320758214673 100.03838258535379 C 0.0 **** -0.24
8287 H 128.88909423953112 163.35425849272127 99.98490167895787 H 0.0 **** 0.06
8288 H 127.69093618019309 164.21437498406692 100.98169975256502 H 0.0 **** 0.06
8289 H 127.18685496178284 162.83338958080603 99.97772317906075 H 0.0 **** 0.06
8290 H 127.65089645722773 164.37083903135758 99.20875944127789 H 0.0 **** 0.06
8291 C 71.04407517347516 5.302408422247595 65.23522344677247 C 0.0 **** -0.24
8292 H 70.86401189938653 4.3372351204039035 65.70800128355789 H 0.0 **** 0.06
8293 H 71.42872550011228 5.146021522500462 64.2268934026577 H 0.0 **** 0.06
8294 H 71.77388612319595 5.862500741933275 65.82054966295117 H 0.0 **** 0.06
8295 H 70.11112926460231 5.862505863528128 65.1855653214448 H 0.0 **** 0.06
8296 C 22.22713294663012 55.71010476715031 125.56276854480683 C 0.0 **** -0.24
8297 H 21.444118369793244 54.98194615125229 125.77327359137979 H 0.0 **** 0.06
8298 H 22.922903246042893 55.29434926685616 124.83277314205256 H 0.0 **** 0.06
8299 H 22.76198630254777 55.94489408560719 126.48299245556521 H 0.0 **** 0.06
8300 H 21.779292837728804 56.619679918403506 125.16071443635991 H 0.0 **** 0.06
8301 C 149.25422403778606 157.02308097180952 120.08987117789658 C 0.0 **** -0.24
8302 H 148.79133937827743 156.24047419665794 120.69178033915702 H 0.0 **** 0.06
8303 H 148.51607443336576 157.79347739259293 119.86725335144118 H 0.0 **** 0.06
8304 H 149.62474650993084 156.5941739306469 119.15921172762461 H 0.0 **** 0.06
8305 H 150.08378043885966 157.46324365769914 120.64302139822854 H 0.0 **** 0.06
8306 C 131.75398545101683 157.96371071247736 84.84625991737083 C 0.0 **** -0.24
8307 H 132.57756898909392 157.7089736048001 85.51253187293787 H 0.0 **** 0.06
8308 H 130.85352897936366 158.14277207987047 85.43379574933728 H 0.0 **** 0.06
8309 H 131.57853225796717 157.13939130199967 84.1541740092893 H 0.0 **** 0.06
8310 H 132.00653470107952 158.86289645929875 84.28399479844572 H 0.0 **** 0.06
8311 C 85.03459964438753 156.61666762917125 26.237890507767588 C 0.0 **** -0.24
8312 H 84.49006989096063 156.24066274203574 27.10437240239756 H 0.0 **** 0.06
8313 H 84.78207608895843 157.66526184572282 26.07681834884869 H 0.0 **** 0.06
8314 H 84.76076950306003 156.03641573715123 25.35718513217884 H 0.0 **** 0.06
8315 H 86.10689634107092 156.52437395635505 26.414918475169827 H 0.0 **** 0.06
8316 C 64.51861353251405 66.81080635716208 148.3622564445966 C 0.0 **** -0.24
8317 H 64.16807296640195 66.24157982542401 149.2233363823377 H 0.0 **** 0.06
8318 H 65.06014633663854 67.69245549500853 148.70550010810567 H 0.0 **** 0.06
8319 H 63.66452052595069 67.11990223308283 147.7594927535381 H 0.0 **** 0.06
8320 H 65.1807277024012 66.18844524459891 147.76125925344994 H 0.0 **** 0.06
8321 C 161.9333360923092 145.6167917385389 90.17155204732694 C 0.0 **** -0.24
8322 H 162.1972569697179 146.00187386738787 89.18594322794007 H 0.0 **** 0.06
8323 H 161.34569772288188 146.36265349873355 90.70632915310426 H 0.0 **** 0.06
8324 H 162.84248814764499 145.39974157717947 90.73185458963479 H 0.0 **** 0.06
8325 H 161.34762935367405 144.7043114121368 90.06036997432358 H 0.0 **** 0.06
8326 C 127.74582900164239 117.48764660608697 92.09146988676099 C 0.0 **** -0.24
8327 H 127.59213389575774 118.12423121866868 91.2205525487158 H 0.0 **** 0.06
8328 H 128.81475346958712 117.35528009741287 92.26024722024584 H 0.0 **** 0.06
8329 H 127.2824865303806 116.51698775056772 91.91912638481918 H 0.0 **** 0.06
8330 H 127.29519502438012 117.95555398976643 92.96708447138118 H 0.0 **** 0.06
8331 C 59.92728735348362 130.51026685783512 99.8547284185018 C 0.0 **** -0.24
8332 H 59.40447466598539 131.46555298883308 99.9124650485989 H 0.0 **** 0.06
8333 H 60.712351287733156 130.48102606495036 100.61046500370588 H 0.0 **** 0.06
8334 H 60.369773143480614 130.39844212453053 98.86517916604623 H 0.0 **** 0.06
8335 H 59.22128341660158 129.69907538964972 100.03127307343158 H 0.0 **** 0.06
8336 C 115.6363715453083 105.04901000727449 7.22004374092387 C 0.0 **** -0.24
8337 H 114.94216425766251 105.83961042561708 7.506868490763509 H 0.0 **** 0.06
8338 H 115.67279463954969 104.97406854881334 6.133020588517127 H 0.0 **** 0.06
8339 H 115.29838956814069 104.10113163066086 7.638217074028887 H 0.0 **** 0.06
8340 H 116.6300462124533 105.28201894589401 7.602019736309188 H 0.0 **** 0.06
8341 C 168.28266754936092 36.541470432953005 0.6913241782619934 C 0.0 **** -0.24
8342 H 169.28002812026227 36.955677514383595 0.5426783630277612 H 0.0 **** 0.06
8343 H 167.986810610511 35.98032491210617 -0.19471111654121387 H 0.0 **** 0.06
8344 H 167.57475921241377 37.353377642405135 0.8609817242598581 H 0.0 **** 0.06
8345 H 168.29032483953628 35.879227515679545 1.5563159898122763 H 0.0 **** 0.06
8346 C 137.04799481195602 106.54001479955554 9.230328348574801 C 0.0 **** -0.24
8347 H 136.9283999310465 107.0923207924454 8.298811676256491 H 0.0 **** 0.06
8348 H 136.91045296349736 105.47506895444394 9.04118345307748 H 0.0 **** 0.06
8349 H 136.30601858519702 106.87991368811899 9.952742499196887 H 0.0 **** 0.06
8350 H 138.0480431045014 106.71288746109178 9.628904139618527 H 0.0 **** 0.06
8351 C 122.55273287230793 78.45468072615716 129.61994003103308 C 0.0 **** -0.24
8352 H 121.81518834084724 77.90658484062158 129.03346909763366 H 0.0 **** 0.06
8353 H 122.06293512386614 78.91888506561816 130.4767023778499 H 0.0 **** 0.06
8354 H 123.00939002361511 79.22629203299601 129.00027607632018 H 0.0 **** 0.06
8355 H 123.3224512594102 77.76720820321265 129.96924690439192 H 0.0 **** 0.06
8356 C 108.31675360012451 45.85882512820035 7.711579591539191 C 0.0 **** -0.24
8357 H 108.54461056190314 46.85139499730468 8.10024454614205 H 0.0 **** 0.06
8358 H 107.61508310161815 45.94640988651676 6.880824113479719 H 0.0 **** 0.06
8359 H 107.8727344053143 45.25244213927388 8.499793874236985 H 0.0 **** 0.06
8360 H 109.23511222047284 45.386257198072286 7.3633882988112305 H 0.0 **** 0.06
8361 C 171.89899575221483 109.16840389012629 101.43529502709538 C 0.0 **** -0.24
8362 H 172.88554535665304 108.7207857810512 101.5501560563078 H 0.0 **** 0.06
8363 H 171.1732033202287 108.3919340998921 101.19046194513862 H 0.0 **** 0.06
8364 H 171.92683073646276 109.90632388324053 100.63380237526087 H 0.0 **** 0.06
8365 H 171.6099338102601 109.65476923388741 102.3676201665377 H 0.0 **** 0.06
8366 C 18.451709464568687 20.098403264007857 160.96564099908463 C 0.0 **** -0.24
8367 H 18.98285575556269 19.154628305716244 161.0910588741426 H 0.0 **** 0.06
8368 H 17.37780071827123 19.91049853628334 160.9525634883951 H 0.0 **** 0.06
8369 H 18.752136091717958 20.561518739102098 160.0256095679558 H 0.0 **** 0.06
8370 H 18.694581895379457 20.764617591263743 161.7928958641292 H 0.0 **** 0.06
8371 C 160.03290571526475 27.4302535875779 94.88376976631037 C 0.0 **** -0.24
8372 H 160.48296777251275 26.44257189906054 94.78114800560897 H 0.0 **** 0.06
8373 H 160.03704073492207 27.723487174786158 95.93331925763167 H 0.0 **** 0.06
8374 H 159.00643827471814 27.401623783716147 94.5181372814896 H 0.0 **** 0.06
8375 H 160.60656616099337 28.151924824763356 94.30143092258638 H 0.0 **** 0.06
8376 C 126.8632266570377 114.90632869021505 41.56639085462125 C 0.0 **** -0.24
8377 H 127.34384931746385 115.77634054399334 41.11720886283919 H 0.0 **** 0.06
8378 H 125.83472872656131 115.15504291068481 41.82961595287475 H 0.0 **** 0.06
8379 H 127.40894244710498 114.61496789725311 42.4646260072944 H 0.0 **** 0.06
8380 H 126.86787487242745 114.08150501442697 40.85527312493085 H 0.0 **** 0.06
8381 C 63.88939530947221 18.634401512500602 133.7927050798732 C 0.0 **** -0.24
8382 H 63.96227581846418 18.012478713714074 134.68456977396536 H 0.0 **** 0.06
8383 H 62.87089383509644 19.01171168045107 133.695421994227 H 0.0 **** 0.06
8384 H 64.14434631602981 18.041366375208042 132.9148027643066 H 0.0 **** 0.06
8385 H 64.58134473190361 19.473417801504382 133.87876265212537 H 0.0 **** 0.06
8386 C 49.037186100497166 5.352990138133805 37.56885774403146 C 0.0 **** -0.24
8387 H 48.529800485777415 5.391858852524933 38.53265815870415 H 0.0 **** 0.06
8388 H 49.4257378187003 6.342462667857603 37.32405187797613 H 0.0 **** 0.06
8389 H 48.33239850874229 5.038204415385962 36.799500496863274 H 0.0 **** 0.06
8390 H 49.86096846464744 4.641222405689746 37.62055388526095 H 0.0 **** 0.06
8391 C 150.26167321241803 138.20439417587332 21.510924567186244 C 0.0 **** -0.24
8392 H 151.1843583888857 137.63826117262428 21.6439046893067 H 0.0 **** 0.06
8393 H 150.48775430952065 139.16353314882662 21.04460282775223 H 0.0 **** 0.06
8394 H 149.79643975321477 138.3726588909753 22.481627389294772 H 0.0 **** 0.06
8395 H 149.5801603434935 137.6418255494603 20.873078248400027 H 0.0 **** 0.06
8396 C 151.649773091178 37.86694036790293 52.81773024163391 C 0.0 **** -0.24
8397 H 152.2524869144211 36.96990887350729 52.67458437467681 H 0.0 **** 0.06
8398 H 152.15408434934275 38.71921386882653 52.36281134015269 H 0.0 **** 0.06
8399 H 151.5168007429612 38.04880269577535 53.88374459730949 H 0.0 **** 0.06
8400 H 150.67587617436487 37.72785287348309 52.34875941140231 H 0.0 **** 0.06
8401 C 109.64305558450062 70.13859358334042 1.2060368093184195 C 0.0 **** -0.24
8402 H 110.05330676390216 70.66546630107376 0.34429595199566165 H 0.0 **** 0.06
8403 H 110.45854116185615 69.76442320768979 1.8248606810608976 H 0.0 **** 0.06
8404 H 109.0332267590903 69.30222008030893 0.8631514396743682 H 0.0 **** 0.06
8405 H 109.02729919660618 70.82174787459948 1.7896689065013902 H 0.0 **** 0.06
8406 C 33.59265136721615 83.31253505480963 125.25956427003001 C 0.0 **** -0.24
8407 H 32.63173676163609 83.82473531885734 125.2220120695377 H 0.0 **** 0.06
8408 H 33.54903760491169 82.51093023665243 125.99584526109146 H 0.0 **** 0.06
8409 H 34.370987342674255 84.02181606021205 125.53964234509061 H 0.0 **** 0.06
8410 H 33.81959721861648 82.89367738260901 124.2789149798034 H 0.0 **** 0.06
8411 C 138.21379382688647 100.59251930648102 101.81468638093949 C 0.0 **** -0.24
8412 H 138.79877721087652 99.67723926509589 101.73297328582694 H 0.0 **** 0.06
8413 H 137.46091163623083 100.47397677303849 102.59306946297309 H 0.0 **** 0.06
8414 H 137.7244112190518 100.79756972286012 100.86285385427664 H 0.0 **** 0.06
8415 H 138.87276298568543 101.42302384893767 102.07023690576091 H 0.0 **** 0.06
8416 C 108.34789483790271 76.00733331514678 119.18779225829408 C 0.0 **** -0.24
8417 H 108.1122188735093 75.07723430878583 119.7054696458328 H 0.0 **** 0.06
8418 H 108.1428363609954 76.85116476151136 119.84675940677496 H 0.0 **** 0.06
8419 H 107.73537504632762 76.08933801013603 118.29135216127727 H 0.0 **** 0.06
8420 H 109.40174084627907 76.01094445662474 118.90987369456991 H 0.0 **** 0.06
8421 C 146.3270424918456 19.061757897401087 20.081098970730686 C 0.0 **** -0.24
8422 H 147.3149271247021 19.09540741422957 19.62201963247405 H 0.0 **** 0.06
8423 H 146.23365900726552 18.152793199442648 20.675755930926123 H 0.0 **** 0.06
8424 H 145.56400165714226 19.066204345181696 19.302267076787977 H 0.0 **** 0.06
8425 H 146.19517804510843 19.93222235354036 20.723059684777994 H 0.0 **** 0.06
8426 C 114.16613489881465 0.14211771762080616 120.23316790129718 C 0.0 **** -0.24
8427 H 113.80605185474096 -0.7493795495887525 119.71876724519421 H 0.0 **** 0.06
8428 H 113.49401202263076 0.9757157514144978 120.02723255054943 H 0.0 **** 0.06
8429 H 115.16751755426495 0.38610036407027337 119.87924783221624 H 0.0 **** 0.06
8430 H 114.1956884817854 -0.045712336490453254 121.306843208222 H 0.0 **** 0.06
8431 C 80.77588495578132 18.249605113069833 127.00581533823248 C 0.0 **** -0.24
8432 H 81.0891655196512 18.62013150676779 127.98169271559073 H 0.0 **** 0.06
8433 H 80.97980222809944 17.18030461881642 126.94181212406627 H 0.0 **** 0.06
8434 H 81.32770730017239 18.77234567434209 126.22453331958789 H 0.0 **** 0.06
8435 H 79.70785276352194 18.42438988844455 126.87776577488702 H 0.0 **** 0.06
8436 C 21.509428439599787 45.37209562628752 24.094535784100522 C 0.0 **** -0.24
8437 H 21.690752176683247 44.48834580940979 23.483267321901558 H 0.0 **** 0.06
8438 H 21.504509192307353 45.09001604455858 25.148080816851042 H 0.0 **** 0.06
8439 H 20.544740973937053 45.805021985077005 23.829767871048837 H 0.0 **** 0.06
8440 H 22.297767265072054 46.10420334509797 23.917630759974216 H 0.0 **** 0.06
8441 C 154.45575201496501 135.83003918656743 158.99452017304023 C 0.0 **** -0.24
8442 H 153.44593265396236 135.98023215222952 158.61361979761676 H 0.0 **** 0.06
8443 H 154.57433090195946 136.37361948631826 159.93245499097452 H 0.0 **** 0.06
8444 H 155.17697193839294 136.20131703403166 158.26597931221116 H 0.0 **** 0.06
8445 H 154.62517560461782 134.76727188202966 159.16537235538215 H 0.0 **** 0.06
8446 C 98.20660411332241 58.71580304864629 25.80562524038215 C 0.0 **** -0.24
8447 H 97.61916660528883 57.80320233471831 25.909390901982263 H 0.0 **** 0.06
8448 H 97.54882211512862 59.54112356958126 25.53290731194557 H 0.0 **** 0.06
8449 H 98.95856808012726 58.57635786666977 25.027853765634497 H 0.0 **** 0.06
8450 H 98.69905996350653 58.93946486727323 26.75136134493352 H 0.0 **** 0.06
8451 C 83.67294210867504 128.94132871194768 23.275429918175817 C 0.0 **** -0.24
8452 H 83.10195804675578 129.56893331240553 22.590799458549007 H 0.0 **** 0.06
8453 H 83.99993700445663 128.0409206905541 22.75508491050533 H 0.0 **** 0.06
8454 H 83.04498207292107 128.66318343188885 24.122592014495048 H 0.0 **** 0.06
8455 H 84.54212625138592 129.49172475797093 23.633465198289592 H 0.0 **** 0.06
8456 C 25.888188178029964 172.26942003267942 118.72600092559676 C 0.0 **** -0.24
8457 H 24.91087168303281 172.41477545281984 119.1876593402495 H 0.0 **** 0.06
8458 H 26.342307659586112 173.23956067069665 118.52401868252011 H 0.0 **** 0.06
8459 H 25.770063652441635 171.72042930871262 117.79275180769 H 0.0 **** 0.06
8460 H 26.527572136818684 171.70241226905839 119.40257282351007 H 0.0 **** 0.06
8461 C 39.30220156381557 23.12344368197131 41.20323215729377 C 0.0 **** -0.24
8462 H 39.264670854874566 23.937225082829258 40.478794118199886 H 0.0 **** 0.06
8463 H 39.9611973798722 22.338248847272723 40.83340414809962 H 0.0 **** 0.06
8464 H 38.30006338463315 22.719454656008622 41.34762442959709 H 0.0 **** 0.06
8465 H 39.68201987175013 23.501070054069373 42.1525369341785 H 0.0 **** 0.06
8466 C 137.59330251855837 93.70544914251593 17.95536489554749 C 0.0 **** -0.24
8467 H 137.13789979024384 94.49871531087376 17.36317801192712 H 0.0 **** 0.06
8468 H 137.80299947451 92.84899200195753 17.314057202910078 H 0.0 **** 0.06
8469 H 136.90934189482135 93.40718490322269 18.74937715558042 H 0.0 **** 0.06
8470 H 138.52313952651383 94.06820664685412 18.393037497816863 H 0.0 **** 0.06
8471 C 67.45279960502303 90.69964541877387 56.9295868496763 C 0.0 **** -0.24
8472 H 67.32937915804645 90.49917418401795 55.86503770631754 H 0.0 **** 0.06
8473 H 68.389331152616 90.26234003914462 57.27517452409802 H 0.0 **** 0.06
8474 H 66.62113659235564 90.26053427402562 57.480462712799465 H 0.0 **** 0.06
8475 H 67.47098973886173 91.77651683934454 57.095978662890275 H 0.0 **** 0.06
8476 C 90.54842356445876 152.79672483347628 169.85596629460645 C 0.0 **** -0.24
8477 H 90.41533248714215 152.54544415805654 170.90889269830694 H 0.0 **** 0.06
8478 H 91.46313048016758 153.3771842853565 169.73533350429426 H 0.0 **** 0.06
8479 H 89.69625143856867 153.3843763464684 169.51305146460507 H 0.0 **** 0.06
8480 H 90.61832718117347 151.88077298349938 169.2695544362702 H 0.0 **** 0.06
8481 C 121.84019592927626 59.505724207284885 48.2460111819434 C 0.0 **** -0.24
8482 H 120.75547372100266 59.51867560951942 48.353664258099 H 0.0 **** 0.06
8483 H 122.28806470179029 60.15570620112457 48.9986413665423 H 0.0 **** 0.06
8484 H 122.11081862404345 59.86187289117204 47.25176892230496 H 0.0 **** 0.06
8485 H 122.20615294787652 58.487603867609295 48.37995754728388 H 0.0 **** 0.06
8486 C 133.9185064503976 136.54503119639108 51.46686093918426 C 0.0 **** -0.24
8487 H 133.91865218768567 136.2447125309388 52.51408958126332 H 0.0 **** 0.06
8488 H 134.91312061860177 136.39449641537567 51.046332534011995 H 0.0 **** 0.06
8489 H 133.64673487995188 137.5981625028923 51.391675411131416 H 0.0 **** 0.06
8490 H 133.19547263497543 135.94360500649327 50.91586835813797 H 0.0 **** 0.06
8491 C 3.2207525422354237 16.80856004411561 87.77298084984895 C 0.0 **** -0.24
8492 H 3.9054858709342852 16.470243436918054 86.99592210049514 H 0.0 **** 0.06
8493 H 3.511235693193818 16.371173898814817 88.72862100554859 H 0.0 **** 0.06
8494 H 2.205992619339831 16.497995453545286 87.5235071478255 H 0.0 **** 0.06
8495 H 3.259885346582962 17.896009406660312 87.84321416030376 H 0.0 **** 0.06
8496 C 93.21539440056739 112.98403168400682 57.64823907957293 C 0.0 **** -0.24
8497 H 93.17200660801495 112.52281346220758 58.634641341410486 H 0.0 **** 0.06
8498 H 93.64128723420862 112.27810748171794 56.9356883926383 H 0.0 **** 0.06
8499 H 93.83973121904953 113.87712239369137 57.69291281584174 H 0.0 **** 0.06
8500 H 92.20959949390252 113.2588985248513 57.33151365677472 H 0.0 **** 0.06
8501 C 154.64134863231686 97.36174002406216 15.740338598240214 C 0.0 **** -0.24
8502 H 155.28028885905601 97.6394903640109 16.578532678587237 H 0.0 **** 0.06
8503 H 154.0352936024011 98.21850096630743 15.445462049614008 H 0.0 **** 0.06
8504 H 153.99000609767563 96.54015654322421 16.036977516020954 H 0.0 **** 0.06
8505 H 155.26100082747004 97.04908547419353 14.899676666324751 H 0.0 **** 0.06
8506 C 84.86996939035724 87.35991805753366 128.94376945458205 C 0.0 **** -0.24
8507 H 85.60053047979216 88.12251996813433 129.2133969794274 H 0.0 **** 0.06
8508 H 85.02145188735794 87.06167044107985 127.90645292023964 H 0.0 **** 0.06
8509 H 83.86401363409685 87.76255230975562 129.06364384544102 H 0.0 **** 0.06
8510 H 84.99452844160017 86.49349152689337 129.59308931956136 H 0.0 **** 0.06
8511 C 160.73206212202905 73.87669778602486 87.56453013573295 C 0.0 **** -0.24
8512 H 161.21222317311714 74.68140327197399 87.00777109407808 H 0.0 **** 0.06
8513 H 161.32193251875975 73.64566817459874 88.45093883893223 H 0.0 **** 0.06
8514 H 160.66143768907352 72.9910924783097 86.93250352924966 H 0.0 **** 0.06
8515 H 159.7313702680306 74.18940365867778 87.86362886571949 H 0.0 **** 0.06
8516 C 31.292242731445413 45.786201052312634 127.18785975497471 C 0.0 **** -0.24
8517 H 30.377321833924384 45.523809479941946 127.71888291248706 H 0.0 **** 0.06
8518 H 31.402008148214577 46.871262758972904 127.16857561972634 H 0.0 **** 0.06
8519 H 31.24118711239936 45.40719463943242 126.16777808572832 H 0.0 **** 0.06
8520 H 32.14781804488706 45.343416404511586 127.6975526201231 H 0.0 **** 0.06
8521 C 63.03959522137262 28.562186103589966 164.62469367471255 C 0.0 **** -0.24
8522 H 62.98666275425616 27.69074766693538 163.9720334323112 H 0.0 **** 0.06
8523 H 62.050275249868804 29.01318017999371 164.70853609908897 H 0.0 **** 0.06
8524 H 63.736279910385605 29.287816276944596 164.20536030999847 H 0.0 **** 0.06
8525 H 63.384411279738984 28.25496923290369 165.61228816630364 H 0.0 **** 0.06
8526 C 37.875392384707055 77.86253352568285 134.43190895488962 C 0.0 **** -0.24
8527 H 37.07747959720648 78.53452369125607 134.7478434171972 H 0.0 **** 0.06
8528 H 38.17211528609856 77.23292108594278 135.27065675750424 H 0.0 **** 0.06
8529 H 38.73061759496538 78.44831123413758 134.09503286633006 H 0.0 **** 0.06
8530 H 37.51908095032614 77.23528333369879 133.61410789470628 H 0.0 **** 0.06
8531 C 75.47356608028346 33.59162871816028 34.138997125624186 C 0.0 **** -0.24
8532 H 74.96070208076291 32.94601892894002 33.426355075335394 H 0.0 **** 0.06
8533 H 75.48727495809557 33.11302155855387 35.11896981925727 H 0.0 **** 0.06
8534 H 74.95110993179708 34.54532868659044 34.20696109247133 H 0.0 **** 0.06
8535 H 76.49708885969223 33.76116152283441 33.80308796654782 H 0.0 **** 0.06
8536 C 136.36597613983955 26.040260478988955 5.2886800281709725 C 0.0 **** -0.24
8537 H 136.59201352459502 26.517532720135847 4.335011059970952 H 0.0 **** 0.06
8538 H 135.5123865219705 25.373097617424605 5.166919287966152 H 0.0 **** 0.06
8539 H 136.1285224868408 26.80373676733143 6.028779261246882 H 0.0 **** 0.06
8540 H 137.23108484839472 25.46739247943077 5.621895197536077 H 0.0 **** 0.06
8541 C 87.59572456103591 85.8846400539139 59.00865438381295 C 0.0 **** -0.24
8542 H 88.12221512880338 84.95302659927121 59.21454566826338 H 0.0 **** 0.06
8543 H 86.89097882414406 86.08956408498956 59.8147249647384 H 0.0 **** 0.06
8544 H 87.0542824870152 85.79529670374215 58.06607257135951 H 0.0 **** 0.06
8545 H 88.31494202523882 86.7005775162883 58.93794738561124 H 0.0 **** 0.06
8546 C 16.93253848193578 7.929113336099903 160.38173015195161 C 0.0 **** -0.24
8547 H 16.455378554398095 7.451039904987084 161.2367672045379 H 0.0 **** 0.06
8548 H 16.62080412344482 8.97207916826845 160.32783079255137 H 0.0 **** 0.06
8549 H 16.639896252251255 7.412878904809183 159.46726433505626 H 0.0 **** 0.06
8550 H 18.01573787939156 7.878085933638822 160.49584622514925 H 0.0 **** 0.06
8551 C 11.525065229172128 104.2500735590653 24.770788377503322 C 0.0 **** -0.24
8552 H 12.201551430778238 103.76367185664009 25.47335437441734 H 0.0 **** 0.06
8553 H 10.706291986481347 103.57298443323151 24.526725094249457 H 0.0 **** 0.06
8554 H 12.068617086365236 104.50658274823974 23.86119142628462 H 0.0 **** 0.06
8555 H 11.124447374813968 105.1582627559705 25.222233756724336 H 0.0 **** 0.06
8556 C 23.255742883284313 12.68190504178682 21.33752668604953 C 0.0 **** -0.24
8557 H 22.36229703898141 12.793751290621344 21.951929753222913 H 0.0 **** 0.06
8558 H 23.67687797539935 13.665803725955378 21.12695640193826 H 0.0 **** 0.06
8559 H 22.99282115904117 12.190489196685014 20.400243992601503 H 0.0 **** 0.06
8560 H 23.989667942209735 12.07811357138845 21.87093557509698 H 0.0 **** 0.06
8561 C 86.20378511787058 19.824786064869357 137.07681932021546 C 0.0 **** -0.24
8562 H 86.39336247589209 18.78163228475222 136.82897717355303 H 0.0 **** 0.06
8563 H 85.77425096484673 20.331334152897966 136.2121380787155 H 0.0 **** 0.06
8564 H 87.14088757190719 20.309271953175738 137.35253588149942 H 0.0 **** 0.06
8565 H 85.50748596561783 19.879152690438985 137.91314098143607 H 0.0 **** 0.06
8566 C 39.240093086705116 66.90265035404143 168.9248873783742 C 0.0 **** -0.24
8567 H 39.84327989104621 67.72029345490155 168.529833415995 H 0.0 **** 0.06
8568 H 39.75652307486355 65.95727430202275 168.75697255655638 H 0.0 **** 0.06
8569 H 38.27500964875591 66.88479450514251 168.417675060224 H 0.0 **** 0.06
8570 H 39.086407222569264 67.04830938678327 169.9939384881415 H 0.0 **** 0.06
8571 C 167.10705407965224 143.0851958479347 162.30489146761153 C 0.0 **** -0.24
8572 H 167.29301954674602 143.5200123624693 161.32291609939966 H 0.0 **** 0.06
8573 H 167.6369881705944 143.66065065839845 163.06322897565707 H 0.0 **** 0.06
8574 H 167.45979364984987 142.05385148178394 162.31795988926967 H 0.0 **** 0.06
8575 H 166.0370893261035 143.10522194035988 162.5139957250571 H 0.0 **** 0.06
8576 C 84.77665978285683 51.95714507629077 89.07567470437347 C 0.0 **** -0.24
8577 H 84.14716411187173 52.814098254083916 89.314146127258 H 0.0 **** 0.06
8578 H 84.39378239772381 51.072638424206446 89.58667972434536 H 0.0 **** 0.06
8579 H 85.79712562806132 52.15273592746712 89.40268054386266 H 0.0 **** 0.06
8580 H 84.76617202623235 51.78752143035328 87.99832747557163 H 0.0 **** 0.06
8581 C 79.76225899686662 85.58619534035768 3.805591174908443 C 0.0 **** -0.24
8582 H 80.37083805779179 86.48388045311157 3.6956723176701587 H 0.0 **** 0.06
8583 H 79.99031414960204 85.10696814491399 4.758635444285915 H 0.0 **** 0.06
8584 H 79.98077084672236 84.89733165457278 2.9901725380356936 H 0.0 **** 0.06
8585 H 78.70695838228814 85.85783397478963 3.779091147045648 H 0.0 **** 0.06
8586 C 72.89794606425558 96.87725245481718 33.995560611254575 C 0.0 **** -0.24
8587 H 72.54941499701488 95.85060839561092 33.88567321264583 H 0.0 **** 0.06
8588 H 73.83892720911624 97.0002298149638 33.45890126674749 H 0.0 **** 0.06
8589 H 73.05007714394064 97.09785697080392 35.052227055393644 H 0.0 **** 0.06
8590 H 72.15311116597172 97.55935468689589 33.585322008860146 H 0.0 **** 0.06
8591 C 50.598067148683626 55.407477310399415 149.02708986814713 C 0.0 **** -0.24
8592 H 49.82525382689913 56.06396155960718 148.6291788960252 H 0.0 **** 0.06
8593 H 50.372928970815636 54.37486826780207 148.7569924749148 H 0.0 **** 0.06
8594 H 50.62996798824278 55.5007299118504 150.11217808880866 H 0.0 **** 0.06
8595 H 51.564988979490565 55.68942243768487 148.60939221952478 H 0.0 **** 0.06
8596 C 15.936027671338962 105.95559484826782 20.653623226926044 C 0.0 **** -0.24
8597 H 15.232503819123167 105.77728471220897 19.83961407179345 H 0.0 **** 0.06
8598 H 16.94833256100344 106.00456193175467 20.2544288184248 H 0.0 **** 0.06
8599 H 15.868604197435275 105.14216312543076 21.376272589945586 H 0.0 **** 0.06
8600 H 15.69096549865688 106.89788263239234 21.143979686097765 H 0.0 **** 0.06
8601 C 90.1858996214504 123.76696526730854 101.46637191483472 C 0.0 **** -0.24
8602 H 90.73727305538968 124.29856702030605 100.68985588851689 H 0.0 **** 0.06
8603 H 90.88812711963847 123.33295543773102 102.17726934697299 H 0.0 **** 0.06
8604 H 89.59219449694834 122.97381784626222 101.01154712669023 H 0.0 **** 0.06
8605 H 89.52630149530286 124.46315021744331 101.98373058410948 H 0.0 **** 0.06
8606 C 146.69271175830332 75.04536885896027 48.923485662441635 C 0.0 **** -0.24
8607 H 146.72750575436277 75.69193029630571 48.04649884513117 H 0.0 **** 0.06
8608 H 147.32784995691534 74.17563057310161 48.75939748316031 H 0.0 **** 0.06
8609 H 145.66637292875686 74.71943772696534 49.09442339754537 H 0.0 **** 0.06
8610 H 147.04797614800572 75.59599000673688 49.79425987958831 H 0.0 **** 0.06
8611 C 142.14475582093974 106.6885360644593 134.94167461778034 C 0.0 **** -0.24
8612 H 141.0774304984813 106.6683478669465 134.721242587583 H 0.0 **** 0.06
8613 H 142.70633962057167 106.77879881636889 134.0120647827772 H 0.0 **** 0.06
8614 H 142.4270201935189 105.76762643549807 135.4501334787726 H 0.0 **** 0.06
8615 H 142.36568571354036 107.54164016041153 135.58386041183837 H 0.0 **** 0.06
8616 C 28.743743800107723 111.82844946741548 164.16543515791506 C 0.0 **** -0.24
8617 H 28.771053695032975 112.89726118330887 164.3731605030243 H 0.0 **** 0.06
8618 H 29.463653979277353 111.59148546062036 163.3821468492192 H 0.0 **** 0.06
8619 H 27.742762164669898 111.54819971356736 163.83607661385264 H 0.0 **** 0.06
8620 H 28.996435110889706 111.27494946225116 165.07084339908428 H 0.0 **** 0.06
8621 C 93.55900189837232 99.47018362316098 118.63609875537094 C 0.0 **** -0.24
8622 H 93.6747210387297 100.40983847003301 118.09570996794392 H 0.0 **** 0.06
8623 H 92.64575402295944 98.97264965451146 118.3084579830722 H 0.0 **** 0.06
8624 H 93.49922138573456 99.67212581602001 119.70551814155576 H 0.0 **** 0.06
8625 H 94.4159661593057 98.8266562886769 118.43547964180621 H 0.0 **** 0.06
8626 C 147.45754355501174 56.42695340112613 119.3554381651399 C 0.0 **** -0.24
8627 H 147.9979668115256 56.45969537079446 118.41042716074534 H 0.0 **** 0.06
8628 H 148.06433920754836 55.915273936737606 120.10335552886914 H 0.0 **** 0.06
8629 H 146.5187186743343 55.88954799342474 119.21934087112379 H 0.0 **** 0.06
8630 H 147.24907343047778 57.44374720440979 119.68996736498585 H 0.0 **** 0.06
8631 C 148.17505348025196 90.96967307588532 77.48674673167886 C 0.0 **** -0.24
8632 H 148.20658930055893 91.90161292573191 76.92306174036361 H 0.0 **** 0.06
8633 H 147.9850844554487 91.18740545965562 78.53777649589847 H 0.0 **** 0.06
8634 H 149.1299980172311 90.45408426042076 77.38878108151863 H 0.0 **** 0.06
8635 H 147.37910315996913 90.33635866168991 77.09592054914992 H 0.0 **** 0.06
8636 C 108.7601926264143 56.69325284271133 46.949952581152814 C 0.0 **** -0.24
8637 H 109.01568235589022 56.17685002673204 46.02444065446656 H 0.0 **** 0.06
8638 H 108.47455439770036 55.96251074544921 47.706379024950024 H 0.0 **** 0.06
8639 H 107.92732583604297 57.373080687612514 46.7674115578514 H 0.0 **** 0.06
8640 H 109.62281176268331 57.260714983636376 47.29916616710676 H 0.0 **** 0.06
8641 C 123.6078654867031 85.9895611352311 83.95757569527865 C 0.0 **** -0.24
8642 H 124.15689812605399 85.099703715911 84.26424179639015 H 0.0 **** 0.06
8643 H 124.30998080294663 86.74957509885945 83.61454064282898 H 0.0 **** 0.06
8644 H 123.03919687436377 86.37417889157052 84.80487694482159 H 0.0 **** 0.06
8645 H 122.92425847256979 85.73400333990617 83.14809756563646 H 0.0 **** 0.06
8646 C 133.6637378907767 135.79414945020255 22.94953993981003 C 0.0 **** -0.24
8647 H 133.80525820200617 136.30527337827434 23.902177612800713 H 0.0 **** 0.06
8648 H 132.6200965683949 135.87917204069464 22.64434135673001 H 0.0 **** 0.06
8649 H 133.92611496552934 134.74246147199997 23.060449031794036 H 0.0 **** 0.06
8650 H 134.3024487999352 136.25034734995512 22.19410761463606 H 0.0 **** 0.06
8651 C 137.839341097959 131.7450780704101 35.06504980765797 C 0.0 **** -0.24
8652 H 137.1940667175289 132.62078569601272 35.14574280348653 H 0.0 **** 0.06
8653 H 137.46109629661106 131.08676208098393 34.28314309605604 H 0.0 **** 0.06
8654 H 137.84961804334526 131.21307020743467 36.015414029228296 H 0.0 **** 0.06
8655 H 138.85149124043366 132.06323060195723 34.8153495103999 H 0.0 **** 0.06
8656 C 11.667076918970423 170.8807943228724 124.66993927189722 C 0.0 **** -0.24
8657 H 10.79332447020846 170.53703788806394 124.11566102289049 H 0.0 **** 0.06
8658 H 11.442710780531144 171.83585659952453 125.1455789315408 H 0.0 **** 0.06
8659 H 12.506875768095995 171.00304644061362 123.9850067698907 H 0.0 **** 0.06
8660 H 11.925002957759233 170.14592440286032 125.43315848747582 H 0.0 **** 0.06
8661 C 122.89480803843492 45.61783647235012 167.52984289759036 C 0.0 **** -0.24
8662 H 123.28391762742785 45.09173702121652 168.40251828184552 H 0.0 **** 0.06
8663 H 122.66372211931383 44.89736153092656 166.745451839473 H 0.0 **** 0.06
8664 H 123.64374792428862 46.322475236035615 167.16866089517248 H 0.0 **** 0.06
8665 H 121.99045214908915 46.15914809215752 167.80645692629054 H 0.0 **** 0.06
8666 C 151.81181780890296 155.9888181599927 27.856988633474074 C 0.0 **** -0.24
8667 H 152.0396426279744 155.68846520434022 28.87976287108404 H 0.0 **** 0.06
8668 H 150.97783815299556 155.39527486752132 27.48072740184712 H 0.0 **** 0.06
8669 H 152.68721961472593 155.82709438004235 27.227404402798633 H 0.0 **** 0.06
8670 H 151.54354660866144 157.04465430376527 27.840025256257206 H 0.0 **** 0.06
8671 C 130.7661246927218 161.63917736115462 97.3455609814468 C 0.0 **** -0.24
8672 H 130.98763365371673 162.67934829664597 97.58761558756936 H 0.0 **** 0.06
8673 H 130.6290703278482 161.53818412973288 96.26885737409219 H 0.0 **** 0.06
8674 H 129.8538574217007 161.33333925178746 97.85864449104128 H 0.0 **** 0.06
8675 H 131.59342802365435 161.00783953063393 97.66844316457247 H 0.0 **** 0.06
8676 C 61.38907646013347 93.91412428706633 12.94733291170354 C 0.0 **** -0.24
8677 H 62.36892645228805 94.3608427355868 12.777192323207885 H 0.0 **** 0.06
8678 H 61.49978595356259 92.837671730691 13.077745658358282 H 0.0 **** 0.06
8679 H 60.74561909909316 94.1122217732574 12.090348556930735 H 0.0 **** 0.06
8680 H 60.944236112717675 94.34547527483787 13.843149036280181 H 0.0 **** 0.06
8681 C 101.56177338410305 42.90287556727796 160.83328694045332 C 0.0 **** -0.24
8682 H 102.26859207533434 42.414998630848686 161.5041815721611 H 0.0 **** 0.06
8683 H 100.54392434421442 42.70122684752158 161.1675777120304 H 0.0 **** 0.06
8684 H 101.69604898941489 42.517296391310765 159.82205849005072 H 0.0 **** 0.06
8685 H 101.73939409228444 43.978916172031404 160.83815758903017 H 0.0 **** 0.06
8686 C 93.23062151800622 6.9276172397804885 43.03374164888106 C 0.0 **** -0.24
8687 H 92.80072398514943 7.861194260949276 42.67008211520158 H 0.0 **** 0.06
8688 H 92.5246126500792 6.440869514148687 43.70624986598972 H 0.0 **** 0.06
8689 H 94.15625668198706 7.139001089292748 43.56955841776107 H 0.0 **** 0.06
8690 H 93.44117265302893 6.2713766832104625 42.19009142626919 H 0.0 **** 0.06
8691 C 162.17452921238808 89.3388053389827 68.09578655384328 C 0.0 **** -0.24
8692 H 161.58589811262686 88.74512358116488 67.3960247386116 H 0.0 **** 0.06
8693 H 163.23415602788526 89.12843217208939 67.94763678835218 H 0.0 **** 0.06
8694 H 161.89118087556946 89.0825127895057 69.11604926548411 H 0.0 **** 0.06
8695 H 161.98645602179568 90.39756952421595 67.9205523364274 H 0.0 **** 0.06
8696 C 157.23649694591705 37.249758215004405 164.4477232978349 C 0.0 **** -0.24
8697 H 156.26513912842256 37.07644110827208 164.91170861765147 H 0.0 **** 0.06
8698 H 157.1430943714351 38.030571544506984 163.69346229112423 H 0.0 **** 0.06
8699 H 157.58277465883248 36.32873434274987 163.97717680775847 H 0.0 **** 0.06
8700 H 157.95201096202112 37.56100842450631 165.2085190471296 H 0.0 **** 0.06
8701 C 133.93913704196012 91.5528124166501 112.86971019132466 C 0.0 **** -0.24
8702 H 133.05650004226086 91.7346788790125 112.25677325033996 H 0.0 **** 0.06
8703 H 134.43227029488722 90.63983979562339 112.53425854868883 H 0.0 **** 0.06
8704 H 133.64121430825614 91.44148263718768 113.91251166979728 H 0.0 **** 0.06
8705 H 134.6259033738735 92.39388731973006 112.7761410211148 H 0.0 **** 0.06
8706 C 34.78487508432161 21.83480834841464 101.12727268077566 C 0.0 **** -0.24
8707 H 35.13409076702385 22.754298866350837 101.5967870815935 H 0.0 **** 0.06
8708 H 34.169178901742015 21.278033338911285 101.83459086959084 H 0.0 **** 0.06
8709 H 35.64159313194264 21.228141721145533 100.83398617724373 H 0.0 **** 0.06
8710 H 34.193489498969086 22.080680846423917 100.24472182294642 H 0.0 **** 0.06
8711 C 67.95241963332334 104.6401772257172 155.18242109124245 C 0.0 **** -0.24
8712 H 68.43496990597468 104.32827153577605 154.25603064085107 H 0.0 **** 0.06
8713 H 67.21907098972983 103.89010137048771 155.47911819752443 H 0.0 **** 0.06
8714 H 67.45322040917017 105.5961883871042 155.02841802433124 H 0.0 **** 0.06
8715 H 68.7030486747364 104.74406373817732 155.96560868450183 H 0.0 **** 0.06
8716 C 47.05878350196697 96.95706194863618 97.62532065090411 C 0.0 **** -0.24
8717 H 47.77509816126938 96.36155775213888 98.19081090663352 H 0.0 **** 0.06
8718 H 47.10824172334368 97.99489865392076 97.95701943543031 H 0.0 **** 0.06
8719 H 46.05336454923821 96.57097423268686 97.79119159989094 H 0.0 **** 0.06
8720 H 47.298117757916344 96.90215998030607 96.56330931644646 H 0.0 **** 0.06
8721 C 158.05444059990924 15.960947623333965 169.39104427977438 C 0.0 **** -0.24
8722 H 158.40350751317828 14.944581764384033 169.57670243268163 H 0.0 **** 0.06
8723 H 157.51858015481042 15.992275818363396 168.4423007335539 H 0.0 **** 0.06
8724 H 158.90781734165716 16.636391607776496 169.34884600967325 H 0.0 **** 0.06
8725 H 157.38707473927764 16.268334558999683 170.1956082854928 H 0.0 **** 0.06
8726 C 43.47884580084255 71.66534981801067 58.424329943781174 C 0.0 **** -0.24
8727 H 44.426407474441135 71.6131014202183 57.88924758419668 H 0.0 **** 0.06
8728 H 43.30140955435792 72.68982742263574 58.75072263090192 H 0.0 **** 0.06
8729 H 43.51546755136198 71.00744168498659 59.2935439370015 H 0.0 **** 0.06
8730 H 42.67173220671907 71.34882563637888 57.7636951941617 H 0.0 **** 0.06
8731 C 160.7475270348 132.112891057041 8.893629984037574 C 0.0 **** -0.24
8732 H 159.71676511916888 131.77513297725966 8.79372255696427 H 0.0 **** 0.06
8733 H 161.08231891195533 131.96009836647087 9.92097415954126 H 0.0 **** 0.06
8734 H 160.8080854326393 133.17258529920187 8.645144600340842 H 0.0 **** 0.06
8735 H 161.38394104211534 131.54342884279365 8.216054754506274 H 0.0 **** 0.06
8736 C 61.501730728449004 53.99502234584821 115.57720379224668 C 0.0 **** -0.24
8737 H 62.01503380448223 54.80937604023663 115.06674990323643 H 0.0 **** 0.06
8738 H 61.5930504236493 53.08157764398538 114.98900510849668 H 0.0 **** 0.06
8739 H 60.44712734327695 54.24740544046085 115.69494802587093 H 0.0 **** 0.06
8740 H 61.94915385399828 53.84146461094383 116.55965774963767 H 0.0 **** 0.06
8741 C 125.5773745397045 136.78807949458886 111.15751390114926 C 0.0 **** -0.24
8742 H 124.63749584991987 137.33803155129743 111.20735338785721 H 0.0 **** 0.06
8743 H 126.38717323171923 137.42032552905727 111.52239501951959 H 0.0 **** 0.06
8744 H 125.77608548240102 136.50231052415972 110.12486622391611 H 0.0 **** 0.06
8745 H 125.50809424497962 135.89312864574111 111.7748139638746 H 0.0 **** 0.06
8746 C 115.2145235508869 160.27014405750919 91.92498587387945 C 0.0 **** -0.24
8747 H 115.28367313501761 159.31193872712822 92.43886040549316 H 0.0 **** 0.06
8748 H 115.50258825318286 161.07037456217364 92.60818284967593 H 0.0 **** 0.06
8749 H 114.1890014181705 160.43000981350082 91.59127717653745 H 0.0 **** 0.06
8750 H 115.88197483991527 160.2707116973956 91.0631136991811 H 0.0 **** 0.06
8751 C 19.55947364500844 157.59808382307176 54.00333677426397 C 0.0 **** -0.24
8752 H 20.217491892865468 158.1875193320849 53.364275766773574 H 0.0 **** 0.06
8753 H 18.622293598338445 158.13490353103913 54.1527936787503 H 0.0 **** 0.06
8754 H 20.04181554197038 157.43326315756457 54.96632410619878 H 0.0 **** 0.06
8755 H 19.356824798662473 156.6382387611422 53.52951607726817 H 0.0 **** 0.06
8756 C 1.6310517887770715 152.79441483217653 45.46326773206525 C 0.0 **** -0.24
8757 H 1.2357001162548755 152.1162314526002 46.21986442759541 H 0.0 **** 0.06
8758 H 2.082874568121298 153.6587995454333 45.950363658502454 H 0.0 **** 0.06
8759 H 0.8204021718349068 153.1260766412088 44.81349326111314 H 0.0 **** 0.06
8760 H 2.383851155598684 152.27684308825593 44.86923509799428 H 0.0 **** 0.06
8761 C 33.707580978535475 113.78264476627575 73.31949214201202 C 0.0 **** -0.24
8762 H 34.614206809771474 113.28631874167547 73.66490240667056 H 0.0 **** 0.06
8763 H 33.721156693275475 113.84736448183807 72.23121218684123 H 0.0 **** 0.06
8764 H 33.65867666842951 114.7857311526285 73.74256215973247 H 0.0 **** 0.06
8765 H 32.83658378654002 113.21018803221219 73.63831397476984 H 0.0 **** 0.06
8766 C 62.76781347384514 56.25335720233947 144.80832476509536 C 0.0 **** -0.24
8767 H 63.36957524381492 57.085792584530324 145.1715137794212 H 0.0 **** 0.06
8768 H 62.589747724403765 56.37416592280542 143.73938461232115 H 0.0 **** 0.06
8769 H 61.81302657826242 56.23743795061128 145.33613515925418 H 0.0 **** 0.06
8770 H 63.296673007024225 55.31776620991944 144.98614274308954 H 0.0 **** 0.06
8771 C 156.52327736088037 40.63228025276574 19.35238302270065 C 0.0 **** -0.24
8772 H 156.53949953628188 40.105520467035376 20.307091452032807 H 0.0 **** 0.06
8773 H 155.50102110776146 40.664630727318325 18.97427085615294 H 0.0 **** 0.06
8774 H 157.15842653694727 40.1083734790907 18.639071475999856 H 0.0 **** 0.06
8775 H 156.8926337268243 41.647387460541836 19.49199093052451 H 0.0 **** 0.06
8776 C 96.20762841948843 104.73538262524909 138.74450654034848 C 0.0 **** -0.24
8777 H 95.16912366186389 104.87421819544886 138.44096941226346 H 0.0 **** 0.06
8778 H 96.69972146738448 104.05363316938039 138.05009720451375 H 0.0 **** 0.06
8779 H 96.23831568445317 104.31506822693359 139.74979569597502 H 0.0 **** 0.06
8780 H 96.7199036984413 105.69731010037947 138.73652233279498 H 0.0 **** 0.06
8781 C 169.56079010389305 113.99178334929849 86.79675096527765 C 0.0 **** -0.24
8782 H 169.11393681743337 114.51107940634711 87.64430504563346 H 0.0 **** 0.06
8783 H 170.2790423404973 114.64869296216392 86.30571768524165 H 0.0 **** 0.06
8784 H 168.7800264662244 113.71366472910367 86.08898027216267 H 0.0 **** 0.06
8785 H 170.0689401879715 113.09400216433804 87.14734416858536 H 0.0 **** 0.06
8786 C 99.99119598033425 106.89828261052142 158.36623544660964 C 0.0 **** -0.24
8787 H 99.09908506674032 106.38775827575685 158.00344183191757 H 0.0 **** 0.06
8788 H 100.79581698702634 106.78323885495803 157.64060666455345 H 0.0 **** 0.06
8789 H 100.29502641330947 106.46411864403717 159.31852578631322 H 0.0 **** 0.06
8790 H 99.77297474125655 107.95689958027529 158.5028361603603 H 0.0 **** 0.06
8791 C 45.348097527589275 151.09328861733246 36.33345022277706 C 0.0 **** -0.24
8792 H 45.04553488946911 151.75757883589733 37.14324374843767 H 0.0 **** 0.06
8793 H 45.42571839197652 150.07306192377985 36.71035830678068 H 0.0 **** 0.06
8794 H 46.31524779582651 151.4115129661907 35.94465747697939 H 0.0 **** 0.06
8795 H 44.60548129412123 151.13136616768912 35.536845302903146 H 0.0 **** 0.06
8796 C 141.819713967083 125.69564734151561 89.12012270110014 C 0.0 **** -0.24
8797 H 141.3453687668747 126.56164170479829 89.58208329025774 H 0.0 **** 0.06
8798 H 142.87397599279907 125.91101215352705 88.94294822295763 H 0.0 **** 0.06
8799 H 141.32933198965407 125.47569788242183 88.17229206620247 H 0.0 **** 0.06
8800 H 141.73083976814812 124.8360327858851 89.7846972932261 H 0.0 **** 0.06
8801 C 0.7730090855777689 81.98451605605999 133.75098749960733 C 0.0 **** -0.24
8802 H -0.22589663047330077 82.19078549673583 134.13422952372395 H 0.0 **** 0.06
8803 H 1.3085339874320425 82.92403083389314 133.60914149705684 H 0.0 **** 0.06
8804 H 0.6957793809737609 81.46172847234294 132.7984898062014 H 0.0 **** 0.06
8805 H 1.3138670834914024 81.36207472109464 134.46424103943843 H 0.0 **** 0.06
8806 C 61.185496347001504 160.09453516461994 23.751222135556247 C 0.0 **** -0.24
8807 H 61.15986685823947 159.81750988221344 24.804868324921415 H 0.0 **** 0.06
8808 H 60.17515057423003 160.06187532133458 23.343126622705825 H 0.0 **** 0.06
8809 H 61.82032189325437 159.39404147741297 23.207174941692983 H 0.0 **** 0.06
8810 H 61.586904531547475 161.10252332481798 23.649352082252847 H 0.0 **** 0.06
8811 C 125.19287078162921 37.586085995544465 88.37485976476965 C 0.0 **** -0.24
8812 H 125.24855528482311 38.522030830100505 88.93265609607786 H 0.0 **** 0.06
8813 H 125.36459209217105 37.78312495074073 87.31703482442403 H 0.0 **** 0.06
8814 H 124.20591426669893 37.14294526817139 88.50751464424701 H 0.0 **** 0.06
8815 H 125.95372647344567 36.897716871886075 88.74490272855965 H 0.0 **** 0.06
8816 C 32.51396824911687 19.315728778601795 65.05547274062587 C 0.0 **** -0.24
8817 H 31.870536796794397 18.516947452772456 65.42307921391654 H 0.0 **** 0.06
8818 H 31.955528679407948 20.252965231289323 65.03814263388765 H 0.0 **** 0.06
8819 H 32.852747007348114 19.07563733344466 64.04787151791061 H 0.0 **** 0.06
8820 H 33.37630143436856 19.419248196475763 65.71416796292192 H 0.0 **** 0.06
8821 C 25.523251614691084 153.83666510562608 76.93359142084162 C 0.0 **** -0.24
8822 H 25.85280644575488 153.8231123596287 77.97224059495397 H 0.0 **** 0.06
8823 H 25.2101063038579 152.83527845248545 76.63830686628779 H 0.0 **** 0.06
8824 H 26.346388754178683 154.16255973751242 76.29611814275711 H 0.0 **** 0.06
8825 H 24.686661472834857 154.52681466971043 76.82750334246163 H 0.0 **** 0.06
8826 C 77.60408530908501 113.39911153947867 132.75143339562115 C 0.0 **** -0.24
8827 H 77.56385015605935 112.32775836700125 132.5541602252558 H 0.0 **** 0.06
8828 H 76.59054058237484 113.7905963419644 132.83424584354643 H 0.0 **** 0.06
8829 H 78.12154863348525 113.89894240438463 131.93317428462814 H 0.0 **** 0.06
8830 H 78.13966951264581 113.57622208893727 133.68320619634426 H 0.0 **** 0.06
8831 C 55.23893241462913 42.354867328244765 30.7918722628757 C 0.0 **** -0.24
8832 H 54.70240697944968 43.30312566861777 30.786328447047424 H 0.0 **** 0.06
8833 H 56.16193316324113 42.45642108402157 30.220762250388972 H 0.0 **** 0.06
8834 H 54.61551199533163 41.58295004720574 30.3398270239326 H 0.0 **** 0.06
8835 H 55.475325951888834 42.07674169709287 31.81841665250407 H 0.0 **** 0.06
8836 C 123.30470677594613 114.30525465733689 16.08529938431738 C 0.0 **** -0.24
8837 H 123.52068698619084 114.14558162459838 15.029087167982595 H 0.0 **** 0.06
8838 H 122.67057639791577 113.49822247873405 16.45155598343578 H 0.0 **** 0.06
8839 H 122.79010982160673 115.2583576242516 16.210162964747298 H 0.0 **** 0.06
8840 H 124.23727869869003 114.31989613793434 16.649016874940827 H 0.0 **** 0.06
8841 C 110.65989084036784 109.5270169872521 171.1489827644542 C 0.0 **** -0.24
8842 H 111.07123498913478 108.54854031698355 171.3979196955369 H 0.0 **** 0.06
8843 H 109.89075711366314 109.79330493233971 171.87442004185178 H 0.0 **** 0.06
8844 H 110.22144062273793 109.49173723478782 170.15110553624456 H 0.0 **** 0.06
8845 H 111.45439555085346 110.27175047381073 171.17090159144647 H 0.0 **** 0.06
8846 C 0.7779315676976495 143.49993208654803 130.57365778361964 C 0.0 **** -0.24
8847 H -0.07335570827366666 143.41737847907095 129.8983585574934 H 0.0 **** 0.06
8848 H 1.5927429874561625 142.8740625766542 130.20977058927718 H 0.0 **** 0.06
8849 H 0.48315811113216256 143.1701620241207 131.5707011858114 H 0.0 **** 0.06
8850 H 1.1071178935692814 144.53794207558718 130.61664381187785 H 0.0 **** 0.06
8851 C 62.987808572709284 132.4449537906944 119.49827411815363 C 0.0 **** -0.24
8852 H 63.533048894933415 133.32934335450653 119.8288573794205 H 0.0 **** 0.06
8853 H 62.25996721612903 132.16136238891562 120.25971821576542 H 0.0 **** 0.06
8854 H 63.68695091477821 131.6242694383276 119.3400295488835 H 0.0 **** 0.06
8855 H 62.468894237459864 132.66599516447553 118.56550843963487 H 0.0 **** 0.06
8856 C 57.82874035359171 81.17623342262172 97.33994023510772 C 0.0 **** -0.24
8857 H 58.11426334988798 81.13956080239502 96.28850363193908 H 0.0 **** 0.06
8858 H 58.42928043354746 80.46180337743105 97.90384495605053 H 0.0 **** 0.06
8859 H 56.773909014367064 80.9226802091892 97.43846819381943 H 0.0 **** 0.06
8860 H 57.998895835177365 82.18081431685384 97.72692669253328 H 0.0 **** 0.06
8861 C 84.22077175446312 106.23175416523725 117.37166263006529 C 0.0 **** -0.24
8862 H 84.40768154333074 105.16472433283718 117.49072244839832 H 0.0 **** 0.06
8863 H 83.26599368716282 106.38044989304825 116.86680758020069 H 0.0 **** 0.06
8864 H 85.01923514794386 106.67531561298142 116.77607664819337 H 0.0 **** 0.06
8865 H 84.19142543517073 106.70682580319317 118.35188143078321 H 0.0 **** 0.06
8866 C 21.766610917980245 107.09427399493677 15.36491400615904 C 0.0 **** -0.24
8867 H 22.296058083850113 106.27792055923351 14.873137669562169 H 0.0 **** 0.06
8868 H 21.725756185925036 107.95450911009618 14.69658726794961 H 0.0 **** 0.06
8869 H 22.292041640799198 107.3680819999249 16.27924375382372 H 0.0 **** 0.06
8870 H 20.753854141143933 106.77424805763309 15.60971860824148 H 0.0 **** 0.06
8871 C 129.1365983928213 117.61357974829008 111.58687818694855 C 0.0 **** -0.24
8872 H 130.18933843138703 117.81580862866156 111.38674546315954 H 0.0 **** 0.06
8873 H 128.62191279391934 117.40778386278771 110.64795646867049 H 0.0 **** 0.06
8874 H 128.68555336528522 118.48173845358835 112.067317596945 H 0.0 **** 0.06
8875 H 129.05240888911175 116.7488297420982 112.24564579415107 H 0.0 **** 0.06
8876 C 60.84175819371694 4.40426003905084 170.78144805351698 C 0.0 **** -0.24
8877 H 59.99672617159682 5.061980609514279 170.98278283169412 H 0.0 **** 0.06
8878 H 61.67150856157613 4.99138562845426 170.38556031015136 H 0.0 **** 0.06
8879 H 60.54870795183851 3.6504356366433086 170.0508089447926 H 0.0 **** 0.06
8880 H 61.150612209467056 3.9150505024126474 171.70507698495402 H 0.0 **** 0.06
8881 C 28.725227690146596 58.16905117908735 4.241215094482243 C 0.0 **** -0.24
8882 H 28.98876129148175 58.69038320262871 5.161646056787248 H 0.0 **** 0.06
8883 H 28.316679623035384 58.880987872590936 3.523883363215674 H 0.0 **** 0.06
8884 H 27.98049700424798 57.40334391764486 4.4581039522744845 H 0.0 **** 0.06
8885 H 29.6153509096697 57.69990709858425 3.821820678053939 H 0.0 **** 0.06
8886 C 27.06508579217774 154.66654052730044 62.25393689624627 C 0.0 **** -0.24
8887 H 27.261569811157074 155.65521944168864 61.83948760769499 H 0.0 **** 0.06
8888 H 27.985880977588806 154.2568654211507 62.668381948163756 H 0.0 **** 0.06
8889 H 26.695375342124983 154.00924656668616 61.46639829984417 H 0.0 **** 0.06
8890 H 26.31612232561085 154.746167913125 63.041996155684274 H 0.0 **** 0.06
8891 C 34.513810394626205 163.17047631758047 111.20044938914211 C 0.0 **** -0.24
8892 H 35.27862906192996 163.9348586981183 111.33373906064287 H 0.0 **** 0.06
8893 H 34.557350183247195 162.7861948301391 110.18083463817308 H 0.0 **** 0.06
8894 H 33.530592090284756 163.60562304537905 111.38333819657439 H 0.0 **** 0.06
8895 H 34.686691262177305 162.35624983918132 111.90368307194709 H 0.0 **** 0.06
8896 C 102.27181986481216 162.31296458225037 145.7144973873166 C 0.0 **** -0.24
8897 H 102.5277435735251 163.35150249112607 145.92673376518016 H 0.0 **** 0.06
8898 H 102.0999136154326 161.78254178617954 146.65096739619577 H 0.0 **** 0.06
8899 H 103.09168290880686 161.83991851018135 145.17375512456192 H 0.0 **** 0.06
8900 H 101.36833095466312 162.27922345946 145.106244568722 H 0.0 **** 0.06
8901 C 20.32995426864469 122.3095314468006 72.30107391137457 C 0.0 **** -0.24
8902 H 19.558436117599896 123.04666899585803 72.52408774106158 H 0.0 **** 0.06
8903 H 20.267928916113902 122.02455455893687 71.2503202565694 H 0.0 **** 0.06
8904 H 20.182503909495786 121.42849084977928 72.92580829301694 H 0.0 **** 0.06
8905 H 21.310948131369102 122.7384113826283 72.50407935485019 H 0.0 **** 0.06
8906 C 17.806979368848346 102.09579243834449 34.889589394278005 C 0.0 **** -0.24
8907 H 18.893855166590356 102.0193186029893 34.85152429743499 H 0.0 **** 0.06
8908 H 17.524114594021107 103.1214724719764 35.127352271233065 H 0.0 **** 0.06
8909 H 17.4223997453861 101.42479483087445 35.65776119308944 H 0.0 **** 0.06
8910 H 17.389253510884252 101.81775699754667 33.92196726454347 H 0.0 **** 0.06
8911 C 33.886213408339756 109.5535286128615 157.21553412833964 C 0.0 **** -0.24
8912 H 33.91430144248801 110.59819251809 157.52739244199267 H 0.0 **** 0.06
8913 H 32.89919143876915 109.32091043211636 156.81528594244315 H 0.0 **** 0.06
8914 H 34.091688811775214 108.91373415068452 158.07315995653448 H 0.0 **** 0.06
8915 H 34.64006828662889 109.38421386749854 156.44676724512863 H 0.0 **** 0.06
8916 C 139.4750035745913 33.08269315753017 145.7803006738372 C 0.0 **** -0.24
8917 H 140.34974614200388 33.673643885225204 145.50874798243427 H 0.0 **** 0.06
8918 H 139.38310076650606 33.04714675986668 146.86526356611964 H 0.0 **** 0.06
8919 H 139.58624835072692 32.07072270104874 145.39072579846618 H 0.0 **** 0.06
8920 H 138.58179142845427 33.53934012499366 145.353596088323 H 0.0 **** 0.06
8921 C 138.33618268788237 138.32889075806145 155.46911953243074 C 0.0 **** -0.24
8922 H 138.69452070843198 137.3333556249642 155.73125661466145 H 0.0 **** 0.06
8923 H 137.255412724292 138.37342047613052 155.6051621273961 H 0.0 **** 0.06
8924 H 138.5810054998516 138.53973158180105 154.42788222240827 H 0.0 **** 0.06
8925 H 138.81463440898705 139.067241641644 156.11220202729038 H 0.0 **** 0.06
8926 C 103.08780013147822 123.5798544478366 136.02131788751547 C 0.0 **** -0.24
8927 H 103.23485974909721 123.27717138194052 137.05805971400724 H 0.0 **** 0.06
8928 H 102.47569568607452 124.4806973825543 135.98894018279262 H 0.0 **** 0.06
8929 H 102.58543413661647 122.77941298584213 135.47679139631816 H 0.0 **** 0.06
8930 H 104.05521798228767 123.77990373072785 135.56135032976604 H 0.0 **** 0.06
8931 C 65.9440615554984 74.13706419109663 81.91296055387696 C 0.0 **** -0.24
8932 H 65.47933080109537 75.12091126347455 81.98517882184643 H 0.0 **** 0.06
8933 H 66.92342419182951 74.16277901774184 82.39006194845943 H 0.0 **** 0.06
8934 H 66.05810411031028 73.86652063357562 80.86344130551701 H 0.0 **** 0.06
8935 H 65.31422294684066 73.4010374600094 82.41232630629509 H 0.0 **** 0.06
8936 C 31.149761786458512 129.8500074638852 110.68586559600462 C 0.0 **** -0.24
8937 H 31.71830468558555 128.95356132324127 110.93000987303532 H 0.0 **** 0.06
8938 H 30.20830123181942 129.8452398331133 111.23578513353675 H 0.0 **** 0.06
8939 H 30.945114807838564 129.87031610932178 109.61537208262934 H 0.0 **** 0.06
8940 H 31.727332464154728 130.7327540876911 110.9610268355591 H 0.0 **** 0.06
8941 C 120.34967500302275 122.8163738640273 162.63107520465184 C 0.0 **** -0.24
8942 H 120.7515016869211 122.67372143822075 163.6341718022707 H 0.0 **** 0.06
8943 H 121.07286293214534 123.36073310765377 162.02378662517893 H 0.0 **** 0.06
8944 H 119.42207870053537 123.38583722767274 162.68917651275862 H 0.0 **** 0.06
8945 H 120.15141470874369 121.84494133975909 162.17763733100327 H 0.0 **** 0.06
8946 C 104.56181124941997 102.57077032238237 65.16995294075873 C 0.0 **** -0.24
8947 H 105.2609339379222 101.84437693920518 64.75492604995624 H 0.0 **** 0.06
8948 H 104.24074989510001 102.24287105492795 66.15921574402866 H 0.0 **** 0.06
8949 H 103.6945426632918 102.65522079199349 64.51456563333313 H 0.0 **** 0.06
8950 H 105.05201362164527 103.54073840005674 65.25010736955608 H 0.0 **** 0.06
8951 C 62.865388805718155 110.58186137710044 127.015794287575 C 0.0 **** -0.24
8952 H 63.874018040559974 110.74720777393748 127.39479142018087 H 0.0 **** 0.06
8953 H 62.4246478412049 109.72278830961304 127.52082401929167 H 0.0 **** 0.06
8954 H 62.90647859415871 110.39241120305627 125.9438006271055 H 0.0 **** 0.06
8955 H 62.25751758963918 111.46606967154858 127.20568752558657 H 0.0 **** 0.06
8956 C 91.15310651320742 132.25106657417575 36.76147019336011 C 0.0 **** -0.24
8957 H 91.08117462063363 132.2297515460312 37.848550980171126 H 0.0 **** 0.06
8958 H 90.28525127870437 131.75160130013361 36.32991841364753 H 0.0 **** 0.06
8959 H 92.06185741606893 131.73639469835976 36.447553207327815 H 0.0 **** 0.06
8960 H 91.18529625646418 133.28524666457918 36.419631741826606 H 0.0 **** 0.06
8961 C 149.4406950378955 25.50525726258323 121.09291954724054 C 0.0 **** -0.24
8962 H 150.3605968815286 24.920328125596512 121.08935648784106 H 0.0 **** 0.06
8963 H 148.5871435654463 24.83863712585324 121.21445000031088 H 0.0 **** 0.06
8964 H 149.34939382316674 26.044638886846144 120.14931487362512 H 0.0 **** 0.06
8965 H 149.46616090019225 26.217487213747802 121.91724117903851 H 0.0 **** 0.06
8966 C 146.03519022791716 30.400590702704605 101.01282371097855 C 0.0 **** -0.24
8967 H 145.5736562237547 31.24542306054613 101.52493977276697 H 0.0 **** 0.06
8968 H 146.85587763292233 30.758752147271466 100.39009520698323 H 0.0 **** 0.06
8969 H 145.2929736669875 29.905618919015723 100.38702208225885 H 0.0 **** 0.06
8970 H 146.41914273856233 29.69485103781362 101.74922860706849 H 0.0 **** 0.06
8971 C 54.01631233208229 24.478617064085967 129.30366974815738 C 0.0 **** -0.24
8972 H 54.45191319468438 23.48294817835543 129.21883137779864 H 0.0 **** 0.06
8973 H 53.2849032622878 24.48700271479572 130.11292971231123 H 0.0 **** 0.06
8974 H 53.525467077622125 24.741505182873993 128.36660467092616 H 0.0 **** 0.06
8975 H 54.80296579373476 25.203012180318694 129.51631323159353 H 0.0 **** 0.06
8976 C 49.37724953684149 1.3016587494350063 92.58733058505544 C 0.0 **** -0.24
8977 H 49.743607901616 0.8883797153595125 91.64865219571115 H 0.0 **** 0.06
8978 H 48.352181333046474 1.6500690257772703 92.45590121635959 H 0.0 **** 0.06
8979 H 50.00966889163084 2.136985374515639 92.88764769896454 H 0.0 **** 0.06
8980 H 49.40312479186609 0.5310915456598835 93.35879923813974 H 0.0 **** 0.06
8981 C 139.1375595301247 133.44324057131598 137.3544912805198 C 0.0 **** -0.24
8982 H 139.2202747145667 132.4936015021429 136.82648748962956 H 0.0 **** 0.06
8983 H 139.64282158112042 134.2224686714945 136.78278414643228 H 0.0 **** 0.06
8984 H 139.60108815603468 133.35442281844968 138.33630377059717 H 0.0 **** 0.06
8985 H 138.08488796334214 133.7028748089578 137.47052509013622 H 0.0 **** 0.06
8986 C 104.55750154630846 26.014658770586266 104.61874297621799 C 0.0 **** -0.24
8987 H 103.75987638912119 26.2364327055638 105.32796834480081 H 0.0 **** 0.06
8988 H 104.14399328632368 25.97093597683957 103.61033707173542 H 0.0 **** 0.06
8989 H 105.00951338772245 25.055080075609055 104.86914505316244 H 0.0 **** 0.06
8990 H 105.3147184586573 26.79725685198781 104.66799721610636 H 0.0 **** 0.06
8991 C 21.04133908471772 134.98555825242155 131.6772720174838 C 0.0 **** -0.24
8992 H 21.689574714586712 134.35048107089995 131.0734891705581 H 0.0 **** 0.06
8993 H 21.21976515679907 136.0311193618144 131.42631129165898 H 0.0 **** 0.06
8994 H 21.25621094997649 134.82301079482772 132.73377408076672 H 0.0 **** 0.06
8995 H 19.999754380438475 134.73590714204212 131.47575327289204 H 0.0 **** 0.06
8996 C 11.493451013409697 130.09489408361281 106.6255965097254 C 0.0 **** -0.24
8997 H 11.643792155247127 130.47095586861582 105.61347336071228 H 0.0 **** 0.06
8998 H 10.544931321579327 129.5598706884387 106.67713833386077 H 0.0 **** 0.06
8999 H 11.478157364191873 130.93066964926467 107.32464191174589 H 0.0 **** 0.06
9000 H 12.307657287586977 129.41788250743664 106.88593989920048 H 0.0 **** 0.06
9001 C 62.17808833488286 164.09602341660195 83.46181177347175 C 0.0 **** -0.24
9002 H 61.50521704956839 163.32111728553082 83.82878302695029 H 0.0 **** 0.06
9003 H 61.76697741213026 164.53178396299947 82.55069610224434 H 0.0 **** 0.06
9004 H 63.1539524465946 163.65966742403586 83.24871585860326 H 0.0 **** 0.06
9005 H 62.28535842528697 164.8726119753313 84.21936740437933 H 0.0 **** 0.06
9006 C 91.47635088459475 164.2368297182544 101.89907467473088 C 0.0 **** -0.24
9007 H 91.63001452242165 164.58885032506038 100.87910253911343 H 0.0 **** 0.06
9008 H 92.37456874641825 163.72330949987622 102.24557707261772 H 0.0 **** 0.06
9009 H 90.63233247219165 163.54720796329806 101.92246164801907 H 0.0 **** 0.06
9010 H 91.26946842508619 165.0865233439866 102.54916048098181 H 0.0 **** 0.06
9011 C 19.5299513761465 4.8778478951584745 21.361418483649885 C 0.0 **** -0.24
9012 H 19.525600169056617 3.869886916817194 21.77530119146863 H 0.0 **** 0.06
9013 H 18.72362175780802 5.4580212504117895 21.81040692073202 H 0.0 **** 0.06
9014 H 19.385907432939575 4.828725398848398 20.282648130695293 H 0.0 **** 0.06
9015 H 20.48539378364663 5.355956229229314 21.579330014652072 H 0.0 **** 0.06
9016 C 170.88611622863618 103.45240828641846 100.82486328023666 C 0.0 **** -0.24
9017 H 170.11016952534243 103.40498973067662 101.58825855899627 H 0.0 **** 0.06
9018 H 170.6612578375453 104.25977341006927 100.12856203662031 H 0.0 **** 0.06
9019 H 170.9233294554348 102.50604228204946 100.28545087535355 H 0.0 **** 0.06
9020 H 171.8505330050586 103.6390774176628 101.29868406860075 H 0.0 **** 0.06
9021 C 120.80062831260048 10.589667035396076 157.70947811048472 C 0.0 **** -0.24
9022 H 121.87052003640048 10.382656393354637 157.6888753417789 H 0.0 **** 0.06
9023 H 120.63326486858509 11.655667895470174 157.5526442715221 H 0.0 **** 0.06
9024 H 120.39259932501156 10.296469185508784 158.67630411658075 H 0.0 **** 0.06
9025 H 120.30612902040471 10.023874667250794 156.92008871205712 H 0.0 **** 0.06
9026 C 4.500197334197878 150.25785028530152 65.53461376420702 C 0.0 **** -0.24
9027 H 5.0270648410747185 151.03060323426024 66.09485720169185 H 0.0 **** 0.06
9028 H 4.583452031435002 149.30675351919197 66.06165533282328 H 0.0 **** 0.06
9029 H 4.941195730493803 150.16323851705104 64.54231783444385 H 0.0 **** 0.06
9030 H 3.4483817500344003 150.53098756029848 65.44032039930728 H 0.0 **** 0.06
9031 C 28.30283882957994 35.3918770430862 63.994816298906414 C 0.0 **** -0.24
9032 H 28.88584104703935 36.3129452435889 63.982010893455424 H 0.0 **** 0.06
9033 H 27.255234498311694 35.62253005433979 63.797209153732865 H 0.0 **** 0.06
9034 H 28.393280393449402 34.91855650862348 64.97262158941203 H 0.0 **** 0.06
9035 H 28.677034797549766 34.714392993166086 63.22702535335844 H 0.0 **** 0.06
9036 C 98.55210974450719 142.850472219964 99.91570988366769 C 0.0 **** -0.24
9037 H 98.48943159198055 143.05026080760126 100.98550386386691 H 0.0 **** 0.06
9038 H 99.54126405520239 142.45945783347486 99.67732430224316 H 0.0 **** 0.06
9039 H 98.38370405952884 143.77532325907663 99.36378391747812 H 0.0 **** 0.06
9040 H 97.79447869439738 142.11866447391537 99.63896678118249 H 0.0 **** 0.06
9041 C 121.69078540479575 111.43614887489002 157.05177485934882 C 0.0 **** -0.24
9042 H 121.6487020179868 112.20260821334423 156.27804929436047 H 0.0 **** 0.06
9043 H 122.205281952397 110.55657690168425 156.66413372903827 H 0.0 **** 0.06
9044 H 120.67860909278568 111.16323863086134 157.34843335994515 H 0.0 **** 0.06
9045 H 122.23176473075279 111.82248241840077 157.91583154634355 H 0.0 **** 0.06
9046 C 16.550989749306893 54.26022816589065 115.30580057817201 C 0.0 **** -0.24
9047 H 17.22614911992096 53.40772888028289 115.23319912688709 H 0.0 **** 0.06
9048 H 15.525570971663967 53.9241676141736 115.15211642385782 H 0.0 **** 0.06
9049 H 16.811642312518103 54.994602365297226 114.54408807114334 H 0.0 **** 0.06
9050 H 16.64204906574045 54.711822695168564 116.29337829729155 H 0.0 **** 0.06
9051 C 102.77546163228976 83.5413126803592 94.11650958695117 C 0.0 **** -0.24
9052 H 102.2561779911037 82.59185982151368 93.99034333153557 H 0.0 **** 0.06
9053 H 102.54693685608856 84.193905841501 93.27327900954728 H 0.0 **** 0.06
9054 H 103.85004217532264 83.36585078288185 94.16000607562069 H 0.0 **** 0.06
9055 H 102.44658697298149 84.01481197649073 95.04197113700275 H 0.0 **** 0.06
9056 C 159.45930443406735 123.59714496846766 117.54114385613886 C 0.0 **** -0.24
9057 H 160.3496266034412 123.26353658720836 117.00784555751957 H 0.0 **** 0.06
9058 H 158.98298982244734 124.40391005891752 116.98345784864935 H 0.0 **** 0.06
9059 H 159.74152793589002 123.95571159180946 118.53057148416246 H 0.0 **** 0.06
9060 H 158.76267262198314 122.76541198092252 117.64178438350507 H 0.0 **** 0.06
9061 C 27.99733060329882 140.53371563352164 67.50247927415728 C 0.0 **** -0.24
9062 H 28.209502162711345 141.31656225376844 66.7739261882391 H 0.0 **** 0.06
9063 H 26.91962779311143 140.45145979553973 67.64493216536982 H 0.0 **** 0.06
9064 H 28.473123282640785 140.78172973115267 68.45165340926303 H 0.0 **** 0.06
9065 H 28.389030342696614 139.58351595913692 67.13750514164298 H 0.0 **** 0.06
9066 C 71.52491370829283 68.90120949993495 165.27856655062538 C 0.0 **** -0.24
9067 H 71.47021857266775 68.27368927924749 164.38899699184006 H 0.0 **** 0.06
9068 H 70.65800115984241 68.70949316501195 165.91064617955897 H 0.0 **** 0.06
9069 H 71.53522423931751 69.95046371620073 164.98336074109042 H 0.0 **** 0.06
9070 H 72.43613529868247 68.66946860128508 165.83024993986237 H 0.0 **** 0.06
9071 C 105.48482222524868 35.04690510007947 138.1714647733081 C 0.0 **** -0.24
9072 H 104.63426670577695 35.59939395131667 137.77205324893137 H 0.0 **** 0.06
9073 H 105.18647791615231 34.01717462517999 138.37278555484292 H 0.0 **** 0.06
9074 H 105.82079642067654 35.51530062202892 139.09636214546853 H 0.0 **** 0.06
9075 H 106.29696565123385 35.05468109280217 137.4441651180474 H 0.0 **** 0.06
9076 C 137.73203625241206 3.606361665316399 65.49560086228844 C 0.0 **** -0.24
9077 H 137.75697855762462 4.584971017089373 65.97572149601604 H 0.0 **** 0.06
9078 H 137.57218241679857 3.731653570002237 64.4246746856712 H 0.0 **** 0.06
9079 H 136.91934678687508 3.0155961946444734 65.91764252124227 H 0.0 **** 0.06
9080 H 138.67908840615019 3.0947022179388455 65.66508535772583 H 0.0 **** 0.06
9081 C 104.18924184484399 10.155406318165916 78.57839146741564 C 0.0 **** -0.24
9082 H 103.79180695291953 10.389005308128063 77.59044399084803 H 0.0 **** 0.06
9083 H 103.42803887864756 10.357389962839022 79.33264597696702 H 0.0 **** 0.06
9084 H 105.0662472286308 10.771806602638051 78.77195641235917 H 0.0 **** 0.06
9085 H 104.4689945629055 9.102419686840776 78.61731149705012 H 0.0 **** 0.06
9086 C 144.9698980153008 44.9506637308409 128.37970630824142 C 0.0 **** -0.24
9087 H 144.1519655333151 44.31160857793368 128.0490250208343 H 0.0 **** 0.06
9088 H 145.02890177672637 44.93083722993585 129.46798736320147 H 0.0 **** 0.06
9089 H 144.79063531315572 45.97225121147703 128.04398752908327 H 0.0 **** 0.06
9090 H 145.90724245834016 44.58908172816852 127.95768496106976 H 0.0 **** 0.06
9091 C 81.7018591720805 10.63568080049697 60.25478617007798 C 0.0 **** -0.24
9092 H 81.24660521333556 9.650355137230264 60.35702299600993 H 0.0 **** 0.06
9093 H 81.9594877877658 11.020482323841549 61.24242654927929 H 0.0 **** 0.06
9094 H 80.99762010471397 11.31294200598711 59.77245665874909 H 0.0 **** 0.06
9095 H 82.60406188727427 10.556763445291864 59.64830245680619 H 0.0 **** 0.06
9096 C 71.22760666492309 84.79043200477253 132.0081040451213 C 0.0 **** -0.24
9097 H 70.21112181315254 85.02214182564387 132.32464197777622 H 0.0 **** 0.06
9098 H 71.9283158862238 85.09912257734601 132.78443640112812 H 0.0 **** 0.06
9099 H 71.4506689468601 85.3229855930511 131.08349597480657 H 0.0 **** 0.06
9100 H 71.31936596814506 83.71739604567557 131.84013010647755 H 0.0 **** 0.06
9101 C 168.5953791798567 151.33582263984476 16.913927860972876 C 0.0 **** -0.24
9102 H 169.2767089468672 151.0720396271812 16.104474044437325 H 0.0 **** 0.06
9103 H 168.24570459842454 152.35842002393025 16.774890312009347 H 0.0 **** 0.06
9104 H 169.11781826082483 151.25646289279294 17.868046650014463 H 0.0 **** 0.06
9105 H 167.7443609499137 150.65565541002672 16.908125876241485 H 0.0 **** 0.06
9106 C 129.51174524267083 6.307459146454505 60.861039814930564 C 0.0 **** -0.24
9107 H 130.05954720131047 5.704399374910906 60.13736371780321 H 0.0 **** 0.06
9108 H 128.49113387977116 6.457917198612563 60.508778529744376 H 0.0 **** 0.06
9109 H 130.00436927871164 7.273809676920365 60.97381582257779 H 0.0 **** 0.06
9110 H 129.49411005538286 5.794038297236938 61.82216582375635 H 0.0 **** 0.06
9111 C 54.42803069767747 45.14868645663714 9.935525996911053 C 0.0 **** -0.24
9112 H 54.48227530625047 44.22126078459357 10.505353445218248 H 0.0 **** 0.06
9113 H 53.60956092950498 45.76051219143885 10.315160954004313 H 0.0 **** 0.06
9114 H 54.25424348223697 44.92000273185704 8.884642602846299 H 0.0 **** 0.06
9115 H 55.36730739822818 45.69349456027335 10.03800836476887 H 0.0 **** 0.06
9116 C 64.55096698019241 48.48384154597298 24.444303741004433 C 0.0 **** -0.24
9117 H 63.7440923928429 47.83687615732656 24.789989146135923 H 0.0 **** 0.06
9118 H 65.4947953128065 48.14724648299661 24.873487888977365 H 0.0 **** 0.06
9119 H 64.35366606289267 49.50899154597407 24.758058447944734 H 0.0 **** 0.06
9120 H 64.61002691242768 48.44159419643405 23.356633627240967 H 0.0 **** 0.06
9121 C 112.85324619739794 71.59775819435464 68.03449384770741 C 0.0 **** -0.24
9122 H 112.53438702923924 71.6008226717047 66.99269079768375 H 0.0 **** 0.06
9123 H 112.29820543982248 70.83621235928136 68.5828203013634 H 0.0 **** 0.06
9124 H 112.65998068527003 72.57613395395039 68.47540032768306 H 0.0 **** 0.06
9125 H 113.91948080010908 71.37979603057374 68.08824725166843 H 0.0 **** 0.06
9126 C 106.07650914238792 147.22198729829265 153.95729516201772 C 0.0 **** -0.24
9127 H 105.50053464288698 146.43452999806846 153.4720874355791 H 0.0 **** 0.06
9128 H 105.74680270894191 148.1931804592539 153.58637234514958 H 0.0 **** 0.06
9129 H 107.13522679307749 147.08786600420396 153.7346595651651 H 0.0 **** 0.06
9130 H 105.92290960832094 147.1732419861675 155.03509813540887 H 0.0 **** 0.06
9131 C 157.77303151176918 3.300039540034277 73.0246138776836 C 0.0 **** -0.24
9132 H 156.94395023126003 3.9844223895554123 73.20449030985816 H 0.0 **** 0.06
9133 H 158.71525205710697 3.8434593439544855 73.1008671918564 H 0.0 **** 0.06
9134 H 157.68026034132296 2.8731877774431993 72.02592360026877 H 0.0 **** 0.06
9135 H 157.75229474466002 2.5013724229634846 73.76526424929897 H 0.0 **** 0.06
9136 C 149.46614799326412 52.58908028766422 25.99311735042619 C 0.0 **** -0.24
9137 H 148.54928454263455 52.84556401372602 25.462066782653324 H 0.0 **** 0.06
9138 H 149.28145023102468 51.734381658291994 26.644654918897288 H 0.0 **** 0.06
9139 H 149.78854517713296 53.440642815332964 26.592165343715124 H 0.0 **** 0.06
9140 H 150.2438817323064 52.336119933873576 25.272239075429354 H 0.0 **** 0.06
9141 C 158.97755691923294 79.01053881947024 127.8163767189657 C 0.0 **** -0.24
9142 H 158.9638181571817 77.99544492118531 127.41934043220729 H 0.0 **** 0.06
9143 H 159.89969218492848 79.5065244398196 127.51529870594919 H 0.0 **** 0.06
9144 H 158.92170108558545 78.97524241683061 128.90520063729423 H 0.0 **** 0.06
9145 H 158.1228677881165 79.56398900777577 127.42723976782139 H 0.0 **** 0.06
9146 C 0.08700472448794017 82.54722799190851 0.6533961017019578 C 0.0 **** -0.24
9147 H -0.17982265117370844 83.56588508158463 0.9332729403046756 H 0.0 **** 0.06
9148 H 0.8433383849901475 82.57144489230147 -0.1308819803828669 H 0.0 **** 0.06
9149 H -0.798222112026906 82.02701520227177 0.28912387654469285 H 0.0 **** 0.06
9150 H 0.48277598740321537 82.0240233843581 1.523713413663927 H 0.0 **** 0.06
9151 C 9.510063866553082 36.159298554441534 163.47944287117997 C 0.0 **** -0.24
9152 H 9.073251825834745 37.1573033609514 163.5272849065571 H 0.0 **** 0.06
9153 H 8.900617214351257 35.52666858562566 162.83427910937849 H 0.0 **** 0.06
9154 H 9.546134860931602 35.730373514680196 164.4803291530745 H 0.0 **** 0.06
9155 H 10.520864947219934 36.22487103229116 163.0746396347095 H 0.0 **** 0.06
9156 C 47.771179413076965 87.10185873239537 90.05088354756765 C 0.0 **** -0.24
9157 H 47.18256857647957 87.9558665690827 90.38650102642777 H 0.0 **** 0.06
9158 H 48.20158707265641 86.59465634932714 90.91439740144807 H 0.0 **** 0.06
9159 H 48.57056170738507 87.44660878421904 89.39530020289584 H 0.0 **** 0.06
9160 H 47.12788416424323 86.41016616643125 89.50610943989028 H 0.0 **** 0.06
9161 C 139.36466813990594 106.27791218543993 109.74699065434027 C 0.0 **** -0.24
9162 H 138.32781964024824 106.55262445978343 109.93937184929456 H 0.0 **** 0.06
9163 H 139.41216738317286 105.23295118264608 109.43956501044852 H 0.0 **** 0.06
9164 H 139.9517452678199 106.417995431619 110.65456065782865 H 0.0 **** 0.06
9165 H 139.7660667373941 106.90854407644534 108.9543256923406 H 0.0 **** 0.06
9166 C 21.911490893773546 137.08514745819397 41.61876109100761 C 0.0 **** -0.24
9167 H 21.83631448785853 137.78727076043788 40.78850477075687 H 0.0 **** 0.06
9168 H 22.960262256516756 136.8499390569994 41.801380464159166 H 0.0 **** 0.06
9169 H 21.370971332492935 136.17158534516363 41.37201214638884 H 0.0 **** 0.06
9170 H 21.478000865739645 137.53344649218175 42.51283131240041 H 0.0 **** 0.06
9171 C 41.10550409107884 82.29747060883739 65.61487681173556 C 0.0 **** -0.24
9172 H 41.59906881626824 82.11248082278135 66.56950388819378 H 0.0 **** 0.06
9173 H 41.005292579931904 81.35750893434339 65.07142956410681 H 0.0 **** 0.06
9174 H 41.70052566766287 82.99606906869258 65.02801085122456 H 0.0 **** 0.06
9175 H 40.11776425924967 82.72116946245399 65.79396189344878 H 0.0 **** 0.06
9176 C 170.11315567236767 107.8523158264679 94.33936678695744 C 0.0 **** -0.24
9177 H 170.01039400185786 108.58541940040703 95.13956762431454 H 0.0 **** 0.06
9178 H 169.51265791950186 108.16358599159008 93.48355981800003 H 0.0 **** 0.06
9179 H 169.76730507896104 106.88076484760063 94.69174617929488 H 0.0 **** 0.06
9180 H 171.15916960403038 107.78099844343782 94.04297879458068 H 0.0 **** 0.06
9181 C 125.82745342900392 13.055670219051535 137.14468776316664 C 0.0 **** -0.24
9182 H 126.65810190645297 12.62986875854557 137.70838842345455 H 0.0 **** 0.06
9183 H 125.00084533093354 13.269347273672906 137.8221265772595 H 0.0 **** 0.06
9184 H 125.50148473288198 12.34474733895857 136.38483825249781 H 0.0 **** 0.06
9185 H 126.15036145736104 13.978612778788829 136.66322684478112 H 0.0 **** 0.06
9186 C 1.2580310965628598 61.93070133980274 148.67431438002527 C 0.0 **** -0.24
9187 H 0.5756165915285862 62.40938440199733 147.97172547871708 H 0.0 **** 0.06
9188 H 2.2858421405646254 62.167247779659476 148.40073002488202 H 0.0 **** 0.06
9189 H 1.1125094993588789 60.85046445695866 148.64339589020153 H 0.0 **** 0.06
9190 H 1.0561042542739756 62.29494545172679 149.68186138944196 H 0.0 **** 0.06
9191 C 154.4505358554301 39.04981949141472 61.26127912228162 C 0.0 **** -0.24
9192 H 153.5920108611939 39.71592533815374 61.18387122494542 H 0.0 **** 0.06
9193 H 154.14926259596842 38.03634490438287 60.9917630048738 H 0.0 **** 0.06
9194 H 154.82465890649814 39.057116762004256 62.284751086305874 H 0.0 **** 0.06
9195 H 155.23496514364163 39.38808418687637 60.58515942965528 H 0.0 **** 0.06
9196 C 108.30682300825936 89.26062907433506 128.69098508991604 C 0.0 **** -0.24
9197 H 107.88091634799088 88.70506000655615 129.52593160746957 H 0.0 **** 0.06
9198 H 107.50496274831198 89.5975204914704 128.0328372916368 H 0.0 **** 0.06
9199 H 108.98739483312943 88.61613763130356 128.13452488589394 H 0.0 **** 0.06
9200 H 108.85238816320577 90.12474814937599 129.06998254045786 H 0.0 **** 0.06
9201 C 22.076557026452626 112.7094807768357 56.3638380263406 C 0.0 **** -0.24
9202 H 23.002904938810538 112.98387880894438 56.868373898797785 H 0.0 **** 0.06
9203 H 22.08950966348978 111.64415450539778 56.13415706871001 H 0.0 **** 0.06
9204 H 21.98518738896344 113.27961336279904 55.43894796321899 H 0.0 **** 0.06
9205 H 21.230037179772253 112.93191003380929 57.01328975896837 H 0.0 **** 0.06
9206 C 7.515266423724199 106.22625262486156 46.99225703873573 C 0.0 **** -0.24
9207 H 6.756296953957502 105.54484821609827 47.37625254942212 H 0.0 **** 0.06
9208 H 8.330201818067536 106.30650045087691 47.71282335851957 H 0.0 **** 0.06
9209 H 7.072862307476498 107.21001528869283 46.83238261542995 H 0.0 **** 0.06
9210 H 7.90228072542925 105.84527798883425 46.04748858804183 H 0.0 **** 0.06
9211 C 21.157800739663088 48.14698143783343 55.25750598673284 C 0.0 **** -0.24
9212 H 21.25462058647412 47.186856498398384 54.75016367907641 H 0.0 **** 0.06
9213 H 20.421677960436824 48.06265677204159 56.05655027317346 H 0.0 **** 0.06
9214 H 20.83402989984299 48.90402288195749 54.54318401257211 H 0.0 **** 0.06
9215 H 22.12162930547413 48.43374975942855 55.679115562430965 H 0.0 **** 0.06
9216 C 98.85518036091474 67.13463900671438 167.99814604491547 C 0.0 **** -0.24
9217 H 98.28412463714363 66.2503151771132 168.28108404542462 H 0.0 **** 0.06
9218 H 98.61835747533843 67.95244691955703 168.67900163425963 H 0.0 **** 0.06
9219 H 98.5967317648794 67.42256898529664 166.97871686202996 H 0.0 **** 0.06
9220 H 99.92037490763659 66.91198813542003 168.05334865932653 H 0.0 **** 0.06
9221 C 155.56680156563905 94.86273893659185 97.05282029911828 C 0.0 **** -0.24
9222 H 155.44814887800217 94.17677459344262 97.89130502344156 H 0.0 **** 0.06
9223 H 154.63871549619154 94.90296956176977 96.4823863093979 H 0.0 **** 0.06
9224 H 156.3743692922301 94.51504514774649 96.41020570019927 H 0.0 **** 0.06
9225 H 155.8043285366221 95.85843101499478 97.42965773924621 H 0.0 **** 0.06
9226 C 31.73531346004205 16.55763440330736 152.543694505294 C 0.0 **** -0.24
9227 H 30.900764059139078 17.24977297972984 152.43263746235186 H 0.0 **** 0.06
9228 H 32.61141551674541 17.09921402809161 152.90134643126524 H 0.0 **** 0.06
9229 H 31.958386053913614 16.09879865257949 151.5811626776565 H 0.0 **** 0.06
9230 H 31.46958007808638 15.782123358716774 153.26314958908833 H 0.0 **** 0.06
9231 C 93.64021813922295 150.21265611489707 26.39326744580272 C 0.0 **** -0.24
9232 H 94.47104920233744 149.7723763354473 26.944897443464576 H 0.0 **** 0.06
9233 H 92.73798896307676 150.17527022178248 27.00453172616573 H 0.0 **** 0.06
9234 H 93.47908845236782 149.65289630377384 25.471890016921968 H 0.0 **** 0.06
9235 H 93.87304269225439 151.2499823942228 26.153129781899835 H 0.0 **** 0.06
9236 C 152.92451648122005 8.489331307708738 15.834699065617428 C 0.0 **** -0.24
9237 H 152.84082757723692 7.845326153541379 14.958938978307629 H 0.0 **** 0.06
9238 H 152.7584113054665 9.525631237085975 15.540166017679155 H 0.0 **** 0.06
9239 H 153.92058594654176 8.388574812417005 16.266093250139193 H 0.0 **** 0.06
9240 H 152.1782027413946 8.196862851806884 16.573232873188886 H 0.0 **** 0.06
9241 C 62.91948104288403 31.727149178250727 94.26017451828335 C 0.0 **** -0.24
9242 H 63.563585143586835 31.969077612858428 93.41501138978799 H 0.0 **** 0.06
9243 H 61.903863175210404 31.55240037080472 93.90475168154848 H 0.0 **** 0.06
9244 H 62.91946366026626 32.5590404086617 94.96602877102526 H 0.0 **** 0.06
9245 H 63.29148509919892 30.830415410513694 94.75546706757365 H 0.0 **** 0.06
9246 C 35.70305221448456 96.58901048717456 27.823782421184987 C 0.0 **** -0.24
9247 H 35.42648970657136 96.97395224447757 26.842583568451204 H 0.0 **** 0.06
9248 H 35.69120193824489 97.40198146100286 28.549672873140636 H 0.0 **** 0.06
9249 H 36.70352972256383 96.15837773369336 27.776291496646024 H 0.0 **** 0.06
9250 H 34.99118495592924 95.8207873516709 28.126849120065827 H 0.0 **** 0.06
9251 C 56.15151787175898 149.25927650746917 5.9862681346048845 C 0.0 **** -0.24
9252 H 56.846100411854195 150.08478273289055 5.835530910947483 H 0.0 **** 0.06
9253 H 56.389982116839775 148.74745222931557 6.918360878823435 H 0.0 **** 0.06
9254 H 56.23478256913327 148.5588766746925 5.1549792188276555 H 0.0 **** 0.06
9255 H 55.133577796504255 149.6456016421676 6.0344144651339064 H 0.0 **** 0.06
9256 C 44.779683282394785 4.700133536860392 55.0332953947306 C 0.0 **** -0.24
9257 H 43.71331150458866 4.7306100312349315 54.8094972680546 H 0.0 **** 0.06
9258 H 45.12252044492911 3.6656469234973486 55.02444651238868 H 0.0 **** 0.06
9259 H 44.95573627819313 5.13335671676046 56.01816605593504 H 0.0 **** 0.06
9260 H 45.325383385646134 5.2706889659217495 54.28273690639486 H 0.0 **** 0.06
9261 C 106.36192878467722 100.72318983490192 147.02688587921662 C 0.0 **** -0.24
9262 H 105.60245367772373 100.65203813237252 146.24846043382888 H 0.0 **** 0.06
9263 H 106.18384717638787 99.95531217317378 147.77971123892667 H 0.0 **** 0.06
9264 H 106.3149267665921 101.70783266209233 147.49204015264056 H 0.0 **** 0.06
9265 H 107.34782031748307 100.57715932085364 146.58449444046994 H 0.0 **** 0.06
9266 C 54.91177886676971 70.01788057440015 3.7822111752727707 C 0.0 **** -0.24
9267 H 54.62600816568562 70.09003174378059 2.7328225438543896 H 0.0 **** 0.06
9268 H 55.31885765473075 69.02570321743146 3.9802065591816103 H 0.0 **** 0.06
9269 H 54.0343625858344 70.1825727636614 4.409661898183053 H 0.0 **** 0.06
9270 H 55.664924533086904 70.77210979507569 4.00609735235701 H 0.0 **** 0.06
9271 C 78.40370849598479 39.58677096653514 18.289298929059697 C 0.0 **** -0.24
9272 H 77.85759077916141 39.91137614642258 19.174934913941456 H 0.0 **** 0.06
9273 H 78.16281858787579 40.24444497599927 17.453471695543016 H 0.0 **** 0.06
9274 H 78.1196878573915 38.5643013988184 18.04209370990685 H 0.0 **** 0.06
9275 H 79.4743166005601 39.62803220152375 18.48833150328528 H 0.0 **** 0.06
9276 C 48.33607654764023 62.67893795898823 129.57579596606863 C 0.0 **** -0.24
9277 H 47.51628163792469 62.74531747755276 128.86038821139599 H 0.0 **** 0.06
9278 H 49.07548642181348 63.44866742853196 129.3532835304187 H 0.0 **** 0.06
9279 H 48.80120825942765 61.696167847086315 129.5057277514719 H 0.0 **** 0.06
9280 H 47.950531989585784 62.8270322220834 130.58530411965793 H 0.0 **** 0.06
9281 C 138.69108504168264 36.65702826870563 19.33786212126057 C 0.0 **** -0.24
9282 H 138.40497979823846 37.66710337170028 19.633032059746824 H 0.0 **** 0.06
9283 H 139.77439661129614 36.60244476481711 19.231697808935394 H 0.0 **** 0.06
9284 H 138.21860529650377 36.40991306133532 18.386880961876955 H 0.0 **** 0.06
9285 H 138.36386764928494 35.949989526293365 20.099919972619887 H 0.0 **** 0.06
9286 C 36.38812450696783 61.00502956764072 57.88080112412594 C 0.0 **** -0.24
9287 H 37.0153111086487 61.00688566551331 56.990250361757205 H 0.0 **** 0.06
9288 H 35.870307275348694 60.048283177850166 57.957904189745605 H 0.0 **** 0.06
9289 H 35.65679721653001 61.810028517776814 57.81143789470295 H 0.0 **** 0.06
9290 H 37.00987196642309 61.15369587768626 58.76428663113809 H 0.0 **** 0.06
9291 C 122.24375244537194 60.99475216587733 102.68831656183733 C 0.0 **** -0.24
9292 H 122.23881246306536 60.74032094247208 103.74842200356329 H 0.0 **** 0.06
9293 H 121.22347149778727 61.191839940504636 102.35807967165994 H 0.0 **** 0.06
9294 H 122.6564382909558 60.161773606783896 102.11750717983708 H 0.0 **** 0.06
9295 H 122.85603308974711 61.881702008228686 102.5305080413766 H 0.0 **** 0.06
9296 C 142.10864013834112 99.3301480107512 98.85496031095528 C 0.0 **** -0.24
9297 H 142.2487623599273 98.28559325064492 99.13448548410324 H 0.0 **** 0.06
9298 H 141.3900034960152 99.39380133188689 98.03793655751923 H 0.0 **** 0.06
9299 H 143.06138456604708 99.75113749220083 98.53559678026843 H 0.0 **** 0.06
9300 H 141.73391070579598 99.8879990879359 99.71253198939738 H 0.0 **** 0.06
9301 C 109.71722824975558 5.656752725540429 148.16128181209035 C 0.0 **** -0.24
9302 H 110.2143081669015 6.624422404951844 148.2248043745131 H 0.0 **** 0.06
9303 H 110.33662340289374 4.898242523511556 148.63899205623758 H 0.0 **** 0.06
9304 H 109.56497539733596 5.395114227166488 147.11358214909006 H 0.0 **** 0.06
9305 H 108.75281031492676 5.710177262480045 148.6667153484709 H 0.0 **** 0.06
9306 C 149.3536682389605 31.96151510140203 129.39770509223348 C 0.0 **** -0.24
9307 H 149.32957143813712 32.29125300784534 130.4361112883307 H 0.0 **** 0.06
9308 H 149.43794439152458 32.82993076089761 128.74340929341705 H 0.0 **** 0.06
9309 H 148.4360418801005 31.420777870847957 129.1668971915995 H 0.0 **** 0.06
9310 H 150.21074805966845 31.30646843576409 129.24390258856502 H 0.0 **** 0.06
9311 C 132.23933054385694 159.88759184844736 92.49130000346824 C 0.0 **** -0.24
9312 H 131.30078371664789 159.47043607815482 92.1277383546101 H 0.0 **** 0.06
9313 H 132.97111171408633 159.08693448397472 92.6074178002437 H 0.0 **** 0.06
9314 H 132.07391002663988 160.37164561875008 93.45366541070445 H 0.0 **** 0.06
9315 H 132.61242402604455 160.61964331099074 91.7752559498046 H 0.0 **** 0.06
9316 C 30.103762268190508 29.3787729083557 72.45036787550922 C 0.0 **** -0.24
9317 H 29.491598264183892 29.183931894903566 73.33089918956767 H 0.0 **** 0.06
9318 H 29.683579987284986 28.851933692374985 71.5929260347288 H 0.0 **** 0.06
9319 H 31.120800408077855 29.02828715731573 72.6308294836608 H 0.0 **** 0.06
9320 H 30.11834587255572 30.44938999329929 72.24825766296036 H 0.0 **** 0.06
9321 C 35.18848250244406 143.98083777024726 137.62904931971732 C 0.0 **** -0.24
9322 H 34.86848589219147 143.33278845402464 138.44401397806465 H 0.0 **** 0.06
9323 H 34.76264444684723 143.622068223899 136.69204902845706 H 0.0 **** 0.06
9324 H 36.27632321304951 143.9705056200875 137.56135131669208 H 0.0 **** 0.06
9325 H 34.845604578285716 144.99787801130938 137.81830589813597 H 0.0 **** 0.06
9326 C 78.78014426610983 163.28717440040606 30.082098412239247 C 0.0 **** -0.24
9327 H 79.48425379060392 164.11232823970573 30.190579345193072 H 0.0 **** 0.06
9328 H 77.8066526333181 163.6777602106431 29.78376305945943 H 0.0 **** 0.06
9329 H 78.68500702502448 162.7635516521733 31.033466539913547 H 0.0 **** 0.06
9330 H 79.14362746478994 162.5960980771926 29.32227104024649 H 0.0 **** 0.06
9331 C 13.206567874128304 35.077819224228236 16.693635563427534 C 0.0 **** -0.24
9332 H 14.163055678497017 34.83919682632238 17.15758123597638 H 0.0 **** 0.06
9333 H 12.465254593060493 35.270739358107605 17.47033027808954 H 0.0 **** 0.06
9334 H 12.88035450107796 34.238663052672095 16.079901161021247 H 0.0 **** 0.06
9335 H 13.31685346186444 35.96432667081629 16.069119894591964 H 0.0 **** 0.06
9336 C 2.794156359444173 88.47197409231433 144.96246714563446 C 0.0 **** -0.24
9337 H 1.760315237385953 88.12903206767146 144.9574232109579 H 0.0 **** 0.06
9338 H 2.997515872145641 88.99784730598321 145.89538753910227 H 0.0 **** 0.06
9339 H 2.9582433767128578 89.14581683788361 144.1218878365063 H 0.0 **** 0.06
9340 H 3.462353729536403 87.61469074543305 144.87674817789429 H 0.0 **** 0.06
9341 C 0.9210929912068195 116.86680137474656 152.94460504506097 C 0.0 **** -0.24
9342 H 1.3637503408265843 116.6735212969358 153.92170916719306 H 0.0 **** 0.06
9343 H 1.5105302341848414 116.36948637907827 152.17354814068665 H 0.0 **** 0.06
9344 H 0.9108961284131851 117.9412434321288 152.7570190128911 H 0.0 **** 0.06
9345 H -0.09941402787467268 116.48548626509367 152.92533405217898 H 0.0 **** 0.06
9346 C 44.19023779697886 94.31392410920813 170.0786404353616 C 0.0 **** -0.24
9347 H 43.41923240361075 94.27874254137538 170.8486665000873 H 0.0 **** 0.06
9348 H 44.01107991486941 95.16911514209727 169.42591999412514 H 0.0 **** 0.06
9349 H 44.160257775897065 93.39622985699526 169.49310087068736 H 0.0 **** 0.06
9350 H 45.16873687749133 94.41433010576947 170.54884718267292 H 0.0 **** 0.06
9351 C 126.90811673960891 37.470325955111946 66.78318563501153 C 0.0 **** -0.24
9352 H 126.02013090703585 37.76894754799275 67.34097099733657 H 0.0 **** 0.06
9353 H 127.789758387843 37.58715291955383 67.41443414880223 H 0.0 **** 0.06
9354 H 127.00892934180726 38.098721158485176 65.89802209906891 H 0.0 **** 0.06
9355 H 126.8130710219178 36.42762747289842 66.47991121258949 H 0.0 **** 0.06
9356 C 149.91171355813742 136.1617806354738 40.86001522504718 C 0.0 **** -0.24
9357 H 149.15177155433105 135.46411773573405 41.212708901144396 H 0.0 **** 0.06
9358 H 150.81784490362787 135.61125146439235 40.60153721526103 H 0.0 **** 0.06
9359 H 150.13585227411312 136.88306576507034 41.64527235196594 H 0.0 **** 0.06
9360 H 149.54182676289793 136.6865869163734 39.9784465393911 H 0.0 **** 0.06
9361 C 16.839985831289027 52.41763423740784 153.54031845471604 C 0.0 **** -0.24
9362 H 16.760668449602292 52.48833046674639 152.45555120846822 H 0.0 **** 0.06
9363 H 16.681468411863875 53.402260186226556 153.98062081023542 H 0.0 **** 0.06
9364 H 17.832646675743717 52.054188904277 153.80941912819847 H 0.0 **** 0.06
9365 H 16.08611246163275 51.725754213378764 153.91537864782984 H 0.0 **** 0.06
9366 C 49.96326093242028 63.991269687127044 16.457159932376953 C 0.0 **** -0.24
9367 H 50.033029132407975 63.910519145703006 17.541472574545764 H 0.0 **** 0.06
9368 H 48.91413318942729 63.98754651417539 16.158482260218648 H 0.0 **** 0.06
9369 H 50.47523884985779 63.14577851032618 15.9966325240365 H 0.0 **** 0.06
9370 H 50.43036142319106 64.9209651013889 16.130692811483584 H 0.0 **** 0.06
9371 C 93.80525307665079 109.46501743600777 81.48118627310157 C 0.0 **** -0.24
9372 H 93.62006460063509 109.9568961523006 82.43588556099895 H 0.0 **** 0.06
9373 H 94.82805552525934 109.66557763886482 81.16117227421375 H 0.0 **** 0.06
9374 H 93.10899031678974 109.84827672557827 80.73439198640352 H 0.0 **** 0.06
9375 H 93.66330838936886 108.39012406177937 81.5933028425197 H 0.0 **** 0.06
9376 C 155.0388814140854 98.85792231064985 64.25851087641577 C 0.0 **** -0.24
9377 H 154.58715851610972 97.88324806358756 64.44286574767489 H 0.0 **** 0.06
9378 H 155.87169069967166 99.00758779238294 64.94574018800144 H 0.0 **** 0.06
9379 H 154.29482335808984 99.63805916024356 64.41335995613154 H 0.0 **** 0.06
9380 H 155.40272852956406 98.90075911822487 63.232381039003 H 0.0 **** 0.06
9381 C 50.45045923167669 47.21584082000753 26.029462884169504 C 0.0 **** -0.24
9382 H 49.59567030943846 47.891347899315434 25.99401894519847 H 0.0 **** 0.06
9383 H 51.37080067506237 47.7971793680305 26.091947499129333 H 0.0 **** 0.06
9384 H 50.46734922643546 46.60341440392284 25.128048000596266 H 0.0 **** 0.06
9385 H 50.36825097968095 46.571849709790385 26.904709947905317 H 0.0 **** 0.06
9386 C 2.3748262883268723 101.56973999181855 94.37969863827266 C 0.0 **** -0.24
9387 H 2.3292276962440113 101.25532049860647 95.42299839017414 H 0.0 **** 0.06
9388 H 1.3631200999043358 101.64376394426901 93.97814878038935 H 0.0 **** 0.06
9389 H 2.9425579152366765 100.83823107736603 93.80425906234245 H 0.0 **** 0.06
9390 H 2.8637380918479565 102.54184161472372 94.31462274184861 H 0.0 **** 0.06
9391 C 58.24417450969972 153.82564503062696 138.9700684268529 C 0.0 **** -0.24
9392 H 57.5458694744886 153.39683668677577 139.68934562542978 H 0.0 **** 0.06
9393 H 59.22787739939197 153.92029183050585 139.43100749094106 H 0.0 **** 0.06
9394 H 57.89072298367023 154.81027690593208 138.66253095081248 H 0.0 **** 0.06
9395 H 58.311987434721686 153.17501882356413 138.09834764429857 H 0.0 **** 0.06
9396 C 105.19265854056226 152.4752913663114 50.41842556968571 C 0.0 **** -0.24
9397 H 105.72910795660871 153.22316528805837 49.834410323292005 H 0.0 **** 0.06
9398 H 105.28553219525932 152.70888432523302 51.479434062556194 H 0.0 **** 0.06
9399 H 105.61765379216456 151.48984212540677 50.22515104417528 H 0.0 **** 0.06
9400 H 104.14032835977565 152.47941706989508 50.13487073146011 H 0.0 **** 0.06
9401 C 12.200934130556725 79.80436107561837 132.78211415687193 C 0.0 **** -0.24
9402 H 11.40298274023661 79.08084199561088 132.9489461166464 H 0.0 **** 0.06
9403 H 12.831154304760169 79.86113660413616 133.66963106148833 H 0.0 **** 0.06
9404 H 11.765563549537177 80.78361655570939 132.58237093461508 H 0.0 **** 0.06
9405 H 12.802027294885406 79.49283096644609 131.92754806866708 H 0.0 **** 0.06
9406 C 27.14061459241431 103.5191792210282 164.0059132864841 C 0.0 **** -0.24
9407 H 26.12815977557105 103.64751774136715 163.62437085719228 H 0.0 **** 0.06
9408 H 27.8199635996765 104.17731536161449 163.4622911843557 H 0.0 **** 0.06
9409 H 27.4516186417261 102.48316412253934 163.86905788482653 H 0.0 **** 0.06
9410 H 27.16363182386001 103.76841684135303 165.06689868096484 H 0.0 **** 0.06
9411 C 128.46289865247172 123.28055214443896 33.86016445922823 C 0.0 **** -0.24
9412 H 128.8581558284905 124.28175743680535 33.69368964573212 H 0.0 **** 0.06
9413 H 127.83867769732075 123.28068739855601 34.7541053884068 H 0.0 **** 0.06
9414 H 129.28888641714462 122.58170954117651 33.99450145976971 H 0.0 **** 0.06
9415 H 127.86572085192284 122.97726261100934 33.00019159916462 H 0.0 **** 0.06
9416 C 35.262072139776706 62.694547074392375 11.450541112765634 C 0.0 **** -0.24
9417 H 35.55571111417987 63.37983859805854 12.24649707976463 H 0.0 **** 0.06
9418 H 34.36193553221915 63.07040328360172 10.962975307604033 H 0.0 **** 0.06
9419 H 35.06183724127993 61.711399068779926 11.874400900935406 H 0.0 **** 0.06
9420 H 36.06772912816547 62.619348477615986 10.72052661925207 H 0.0 **** 0.06
9421 C 70.41593377321372 83.42131322441391 12.589132372443345 C 0.0 **** -0.24
9422 H 69.45659035999017 83.91501961109684 12.435075901112896 H 0.0 **** 0.06
9423 H 71.11002128059974 83.72458086945714 11.803958817171349 H 0.0 **** 0.06
9424 H 70.27828363745434 82.3409020527635 12.55531957731975 H 0.0 **** 0.06
9425 H 70.81944999357604 83.70662181691617 13.561114304551126 H 0.0 **** 0.06
9426 C 8.352806951426388 25.093678023706275 150.0772781971853 C 0.0 **** -0.24
9427 H 7.313912130122105 25.084826573446968 150.40796143640893 H 0.0 **** 0.06
9428 H 8.790705174246483 24.10765287438604 150.23236441505543 H 0.0 **** 0.06
9429 H 8.909600499399524 25.833280933615512 150.65293927316554 H 0.0 **** 0.06
9430 H 8.394738432724253 25.348426036487687 149.01924826875768 H 0.0 **** 0.06
9431 C 124.04992940952471 46.08903479271804 33.239945791740126 C 0.0 **** -0.24
9432 H 124.22819077292843 46.826710285596604 32.45823234791578 H 0.0 **** 0.06
9433 H 124.66828780658395 45.209665615163374 33.059142212664256 H 0.0 **** 0.06
9434 H 122.99810107192687 45.80112585591728 33.234964861739286 H 0.0 **** 0.06
9435 H 124.30373574768925 46.51865085637763 34.20945215514928 H 0.0 **** 0.06
9436 C 170.17858286640495 116.45554288615983 61.30478196499263 C 0.0 **** -0.24
9437 H 169.65950859484064 115.57409809157838 60.92671425454773 H 0.0 **** 0.06
9438 H 170.8881108842632 116.80776755015194 60.55539955934995 H 0.0 **** 0.06
9439 H 170.7136390437036 116.19626859592904 62.218385772312445 H 0.0 **** 0.06
9440 H 169.45322473419378 117.24051693783633 61.517369563501774 H 0.0 **** 0.06
9441 C 94.95873799665532 39.29879302849922 69.80699580381031 C 0.0 **** -0.24
9442 H 95.52620053605727 40.173890823273155 69.48891354140112 H 0.0 **** 0.06
9443 H 95.37235265949067 38.40721575384856 69.33393438525424 H 0.0 **** 0.06
9444 H 93.91653172829155 39.415842675989936 69.5138890057243 H 0.0 **** 0.06
9445 H 95.02279477576798 39.198213140455195 70.89005100820594 H 0.0 **** 0.06
9446 C 73.67073832259723 101.51764692619884 69.19135724355789 C 0.0 **** -0.24
9447 H 74.1347243472755 101.42980076577106 68.20919422591861 H 0.0 **** 0.06
9448 H 74.26354813174689 102.19041162217576 69.81270693185586 H 0.0 **** 0.06
9449 H 73.62486080499028 100.53493903079124 69.6601894281528 H 0.0 **** 0.06
9450 H 72.66267797079632 101.91755622708405 69.08275679348681 H 0.0 **** 0.06
9451 C 146.60949443288405 63.680767868228614 105.58392278220447 C 0.0 **** -0.24
9452 H 147.50911360384487 64.15267376340141 105.97762359227409 H 0.0 **** 0.06
9453 H 146.7701356845613 62.60581267586117 105.50265222714893 H 0.0 **** 0.06
9454 H 146.38511467634052 64.09149391073065 104.59914257915386 H 0.0 **** 0.06
9455 H 145.77406118130017 63.87384923964758 106.2573795884743 H 0.0 **** 0.06
9456 C 168.61751557944018 101.44299307705478 33.439117229404445 C 0.0 **** -0.24
9457 H 168.8989267744704 101.47917547226803 34.491560462839715 H 0.0 **** 0.06
9458 H 169.3901326686309 100.92002011479701 32.87438868021084 H 0.0 **** 0.06
9459 H 168.51100479126487 102.45795104346792 33.05668298235645 H 0.0 **** 0.06
9460 H 167.66981157256194 100.91397450134855 33.33495069005863 H 0.0 **** 0.06
9461 C 13.786677603718012 76.18724295462638 158.49919446061787 C 0.0 **** -0.24
9462 H 12.870412070262205 76.1048961697138 157.91421696023232 H 0.0 **** 0.06
9463 H 13.573593350134438 76.70124824067041 159.43653156899293 H 0.0 **** 0.06
9464 H 14.527844659329688 76.75303529070959 157.9337966876631 H 0.0 **** 0.06
9465 H 14.173861874701252 75.19011485186394 158.7100192375003 H 0.0 **** 0.06
9466 C 8.038254048747945 140.87672069404258 170.357342828425 C 0.0 **** -0.24
9467 H 7.958319109296184 140.18091248795616 171.19238805083057 H 0.0 **** 0.06
9468 H 9.01827150915679 141.35273851721155 170.3745175931454 H 0.0 **** 0.06
9469 H 7.26271912332254 141.63761399822272 170.4436859669692 H 0.0 **** 0.06
9470 H 7.912398867299601 140.33419769860194 169.41990830722926 H 0.0 **** 0.06
9471 C 52.036830553241884 31.930940338224488 11.060404531906272 C 0.0 **** -0.24
9472 H 52.39425256175616 31.067107691555876 10.498450888450662 H 0.0 **** 0.06
9473 H 52.83533512870511 32.66829146313475 11.140116099089198 H 0.0 **** 0.06
9474 H 51.73434697178334 31.61349731065937 12.058558731168148 H 0.0 **** 0.06
9475 H 51.18385322343994 32.37115940207427 10.544722446678833 H 0.0 **** 0.06
9476 C 76.37383691850319 115.72438871007074 23.59216341020678 C 0.0 **** -0.24
9477 H 76.05629711065224 115.28531773625016 22.646995010695775 H 0.0 **** 0.06
9478 H 75.57192461320945 115.62887572364477 24.323789743251268 H 0.0 **** 0.06
9479 H 76.60670917378025 116.7782540083947 23.443262097715746 H 0.0 **** 0.06
9480 H 77.26115407133031 115.20396520297089 23.954996535146705 H 0.0 **** 0.06
9481 C 110.14688138631206 45.64088426297144 122.02894061586085 C 0.0 **** -0.24
9482 H 110.12118899692854 44.685299482472544 122.55267701274076 H 0.0 **** 0.06
9483 H 110.67860911766311 46.37357988642739 122.63767453544193 H 0.0 **** 0.06
9484 H 109.12837254622346 45.985237285257654 121.85190982552803 H 0.0 **** 0.06
9485 H 110.66120320038638 45.51886275297079 121.07579739368677 H 0.0 **** 0.06
9486 C 13.34336014653178 59.20730491762899 30.427278292273797 C 0.0 **** -0.24
9487 H 12.763320618911877 58.87107042895107 29.56678613569227 H 0.0 **** 0.06
9488 H 14.091290439279845 59.930667171859795 30.099817514316328 H 0.0 **** 0.06
9489 H 13.840693274692796 58.35216068325734 30.88466901707241 H 0.0 **** 0.06
9490 H 12.678994648031505 59.67336591361244 31.153664391517566 H 0.0 **** 0.06
9491 C 86.34591996315385 36.35941589098803 102.03841794075208 C 0.0 **** -0.24
9492 H 87.02498864938666 35.54729613704811 101.77712417264581 H 0.0 **** 0.06
9493 H 85.57322552493542 35.982913385164466 102.7094539913046 H 0.0 **** 0.06
9494 H 85.88308471697394 36.75134013347366 101.13326708006707 H 0.0 **** 0.06
9495 H 86.90420257382378 37.15325834057009 102.53506257082336 H 0.0 **** 0.06
9496 C 84.94671194508942 27.89576463164387 4.012345129250065 C 0.0 **** -0.24
9497 H 85.6006882052315 27.144771436644042 3.570610569795292 H 0.0 **** 0.06
9498 H 85.24424739295836 28.885493680198593 3.6661064123407243 H 0.0 **** 0.06
9499 H 85.02478503392683 27.85183488752854 5.098789312502902 H 0.0 **** 0.06
9500 H 83.91683560662506 27.70028423880592 3.714552730516658 H 0.0 **** 0.06
9501 C 79.7987108345542 147.78017194640233 55.07239820357336 C 0.0 **** -0.24
9502 H 79.47172158378164 146.91416170843496 54.496316177146525 H 0.0 **** 0.06
9503 H 80.54937543449167 147.46992401562494 55.799851355493445 H 0.0 **** 0.06
9504 H 78.94531117907788 148.21396526334192 55.59302048010966 H 0.0 **** 0.06
9505 H 80.22998255873597 148.52122825802766 54.39961635233436 H 0.0 **** 0.06
9506 C 164.3798715807896 138.388168874528 20.352995551412135 C 0.0 **** -0.24
9507 H 165.28119914829225 137.8307663491331 20.609062420240093 H 0.0 **** 0.06
9508 H 164.32214155058927 139.2870362746526 20.96784501270872 H 0.0 **** 0.06
9509 H 163.50405727658654 137.76616424733572 20.534551878276943 H 0.0 **** 0.06
9510 H 164.41431574133082 138.669719707647 19.300394049293374 H 0.0 **** 0.06
9511 C 125.43943500475163 171.8910521069207 138.50194210989213 C 0.0 **** -0.24
9512 H 126.50005447884939 171.84510636828668 138.2550342280996 H 0.0 **** 0.06
9513 H 124.85710760037895 171.47178701560296 137.68124620306057 H 0.0 **** 0.06
9514 H 125.14841225257203 172.9286564360035 138.6619457533526 H 0.0 **** 0.06
9515 H 125.25330154760269 171.31702292029956 139.4097278872767 H 0.0 **** 0.06
9516 C 42.89388273977784 149.38050060914338 167.46423707958235 C 0.0 **** -0.24
9517 H 43.846646834135925 149.83286563768394 167.18561959975256 H 0.0 **** 0.06
9518 H 43.00815251141728 148.848251716539 168.40906073866648 H 0.0 **** 0.06
9519 H 42.582075062464696 148.68251788539476 166.68809389793643 H 0.0 **** 0.06
9520 H 42.14048757519811 150.16136364857942 167.57546598732762 H 0.0 **** 0.06
9521 C 13.106282952246715 76.69630435259658 139.95532553830245 C 0.0 **** -0.24
9522 H 12.405855200789887 76.48784293979648 140.7645887917584 H 0.0 **** 0.06
9523 H 13.191590803929557 75.81792780705146 139.31524006612054 H 0.0 **** 0.06
9524 H 14.082332831606521 76.93761671009072 140.37465968460702 H 0.0 **** 0.06
9525 H 12.742711544163 77.53962115497676 139.369081768489 H 0.0 **** 0.06
9526 C 151.83329680112212 13.749300841825495 59.86747180030922 C 0.0 **** -0.24
9527 H 152.86380993328018 13.768861800850189 59.510954934191076 H 0.0 **** 0.06
9528 H 151.82759276535373 13.710907021420823 60.95713394289865 H 0.0 **** 0.06
9529 H 151.3282057983812 12.869351832020435 59.4688328524488 H 0.0 **** 0.06
9530 H 151.31706784638277 14.649219988354922 59.53223546792563 H 0.0 **** 0.06
9531 C 79.34332343785562 95.72301817323844 6.496595039431213 C 0.0 **** -0.24
9532 H 79.05611364488325 94.80919249868407 7.016894339135206 H 0.0 **** 0.06
9533 H 80.39540055060093 95.93427085278276 6.68830378533346 H 0.0 **** 0.06
9534 H 78.733074090777 96.55226829454088 6.855185573248207 H 0.0 **** 0.06
9535 H 79.18742892656151 95.59459204714415 5.4248512017458665 H 0.0 **** 0.06
9536 C 89.55130110483242 103.88190515474506 71.61040141289509 C 0.0 **** -0.24
9537 H 89.33382869646965 104.84470510766747 72.07123993852636 H 0.0 **** 0.06
9538 H 88.71825164908387 103.58894121772843 70.97011712659008 H 0.0 **** 0.06
9539 H 89.69478808363695 103.13056167914672 72.38692034581301 H 0.0 **** 0.06
9540 H 90.45835293087973 103.96347170424144 71.01032882857622 H 0.0 **** 0.06
9541 C 3.681111729586604 41.79074973458559 146.41359405694482 C 0.0 **** -0.24
9542 H 4.294872269605236 40.88923383897536 146.38990170933766 H 0.0 **** 0.06
9543 H 4.27778751603995 42.64486908134613 146.09513479674743 H 0.0 **** 0.06
9544 H 3.3206083401650233 41.957073487032176 147.42859597502107 H 0.0 **** 0.06
9545 H 2.8313480991726863 41.66884717430838 145.7410884774013 H 0.0 **** 0.06
9546 C 44.19148366606328 155.72319859968516 132.13327161194027 C 0.0 **** -0.24
9547 H 44.121948361894795 156.68150685930476 132.6474362652867 H 0.0 **** 0.06
9548 H 44.05147816896397 155.87429299956423 131.06323230942445 H 0.0 **** 0.06
9549 H 43.4203454461977 155.051610667471 132.51053766888072 H 0.0 **** 0.06
9550 H 45.17363427895009 155.28504732368265 132.31380927655331 H 0.0 **** 0.06
9551 C 17.389294806644223 105.11191714434523 11.510358813961922 C 0.0 **** -0.24
9552 H 16.796769151918596 105.70324976410927 12.209133665184432 H 0.0 **** 0.06
9553 H 17.621963753718106 104.14590288503172 11.958641985340556 H 0.0 **** 0.06
9554 H 18.314907289941218 105.63880784434826 11.281328531220517 H 0.0 **** 0.06
9555 H 16.821416391566856 104.95902097022449 10.592480794871435 H 0.0 **** 0.06
9556 C 74.24234594301832 27.9873171295244 71.5188044072238 C 0.0 **** -0.24
9557 H 75.01360582376851 28.734393566049164 71.33231534771112 H 0.0 **** 0.06
9558 H 74.71019142074758 27.053452368001672 71.83401935572809 H 0.0 **** 0.06
9559 H 73.67278979232867 27.818672481371095 70.60511958936468 H 0.0 **** 0.06
9560 H 73.57512771023946 28.342000342910183 72.30383103678405 H 0.0 **** 0.06
9561 C 28.5926546673943 1.7529032142753351 164.18194597350268 C 0.0 **** -0.24
9562 H 27.878801541382757 1.922213496797923 163.3750587684244 H 0.0 **** 0.06
9563 H 29.25984832079962 2.6112855999856777 164.2627884435833 H 0.0 **** 0.06
9564 H 29.176188220227914 0.8567192404792934 163.9679317199064 H 0.0 **** 0.06
9565 H 28.05398764855596 1.6203032369044195 165.12074217142236 H 0.0 **** 0.06
9566 C 98.34052967578106 10.076593134807617 113.77034345391453 C 0.0 **** -0.24
9567 H 98.99203683424165 10.930728348059212 113.58203869270099 H 0.0 **** 0.06
9568 H 97.29963551331471 10.3863684283872 113.67294829219264 H 0.0 **** 0.06
9569 H 98.51535672781381 9.702294344528262 114.77886469487157 H 0.0 **** 0.06
9570 H 98.55580784236852 9.289854899029507 113.04704513757358 H 0.0 **** 0.06
9571 C 52.77080344741512 110.44944210767528 78.00960198706672 C 0.0 **** -0.24
9572 H 53.20973936387071 109.68726692411775 78.65284098955122 H 0.0 **** 0.06
9573 H 52.134551807157834 109.9730601631822 77.26363531114002 H 0.0 **** 0.06
9574 H 53.56482188021414 111.00365610754267 77.50989333786221 H 0.0 **** 0.06
9575 H 52.17399550510805 111.13436389549088 78.61284707847675 H 0.0 **** 0.06
9576 C 63.75523660987858 101.72885430144132 94.71351525805142 C 0.0 **** -0.24
9577 H 64.37709745576791 100.83401505598164 94.75878154915623 H 0.0 **** 0.06
9578 H 64.06362639419615 102.34195281979353 93.86688185226396 H 0.0 **** 0.06
9579 H 63.869214059813146 102.29784064327211 95.63574941757088 H 0.0 **** 0.06
9580 H 62.711471584881735 101.43902914848766 94.59158435894474 H 0.0 **** 0.06
9581 C 38.750780714613825 24.67157090191813 9.01463315786134 C 0.0 **** -0.24
9582 H 39.6222043284363 24.494297552029764 9.64500307436225 H 0.0 **** 0.06
9583 H 39.04071987393985 24.596348269055966 7.966026912499842 H 0.0 **** 0.06
9584 H 38.35660673559116 25.668031913337956 9.212563687921431 H 0.0 **** 0.06
9585 H 37.985949227262864 23.928260932791034 9.234819921552571 H 0.0 **** 0.06
9586 C 22.55380656822564 22.725768929947435 74.84602655522451 C 0.0 **** -0.24
9587 H 22.123637105430845 22.161055320166525 75.67370945493184 H 0.0 **** 0.06
9588 H 23.633628181106786 22.574541962091757 74.8268456876747 H 0.0 **** 0.06
9589 H 22.337174573521622 23.785249588313604 74.9776223779296 H 0.0 **** 0.06
9590 H 22.121248634833506 22.379513102337256 73.90711669072348 H 0.0 **** 0.06
9591 C 115.8109645612493 142.7394757861831 4.749661326252635 C 0.0 **** -0.24
9592 H 114.89963322887351 142.6640192481766 5.342352377075372 H 0.0 **** 0.06
9593 H 116.46113343776403 141.89395834954257 4.976579614501588 H 0.0 **** 0.06
9594 H 116.32549079918903 143.66887259025606 4.990687205275151 H 0.0 **** 0.06
9595 H 115.55700078353203 142.72803379482886 3.6897506395945925 H 0.0 **** 0.06
9596 C 76.809740858364 129.9826341110288 21.222325218891783 C 0.0 **** -0.24
9597 H 76.6749656204108 128.9440965785339 21.524455341835896 H 0.0 **** 0.06
9598 H 77.73914479204618 130.0808362328733 20.66173281341844 H 0.0 **** 0.06
9599 H 76.85041631517981 130.615720755758 22.109821161616004 H 0.0 **** 0.06
9600 H 75.97256153710441 130.29011001966404 20.595622309620133 H 0.0 **** 0.06
9601 C 43.643699307973264 50.53683068470586 3.0945497960326804 C 0.0 **** -0.24
9602 H 43.39427444108779 51.57646690568323 2.8805428572355254 H 0.0 **** 0.06
9603 H 44.68874493961793 50.46900614940945 3.3964084348947097 H 0.0 **** 0.06
9604 H 43.48271743808277 49.93341993842256 2.201089388893564 H 0.0 **** 0.06
9605 H 43.00688025589241 50.16952593383773 3.8999453064159013 H 0.0 **** 0.06
9606 C 98.08351403261662 127.44894545446547 107.68715092350774 C 0.0 **** -0.24
9607 H 97.53797353181588 127.51548394759047 106.74575388685332 H 0.0 **** 0.06
9608 H 97.70984574195046 128.20472670870316 108.37817689713751 H 0.0 **** 0.06
9609 H 99.14552773490851 127.6156508126713 107.5047134594204 H 0.0 **** 0.06
9610 H 97.94113248286834 126.45863329502305 108.11955409449476 H 0.0 **** 0.06
9611 C 126.3842195697635 140.14542090176042 22.072928705881992 C 0.0 **** -0.24
9612 H 125.88297364487659 140.89443340244998 21.46050976441002 H 0.0 **** 0.06
9613 H 127.42614574361176 140.06009339172326 21.76408043535656 H 0.0 **** 0.06
9614 H 125.88807519874223 139.18249913155 21.948628131276088 H 0.0 **** 0.06
9615 H 126.33865447321614 140.44396208604843 23.120607658957113 H 0.0 **** 0.06
9616 C 76.90784524121666 54.25186005050786 137.09811474955592 C 0.0 **** -0.24
9617 H 77.39726113805517 54.18053117223012 138.06882089566307 H 0.0 **** 0.06
9618 H 76.36405308186838 53.32909677452891 136.89680851904237 H 0.0 **** 0.06
9619 H 77.65780747846522 54.40802983874538 136.3236763836183 H 0.0 **** 0.06
9620 H 76.21152455587675 55.09064252421568 137.10400200550822 H 0.0 **** 0.06
9621 C 51.01984542594127 166.2567112970484 152.58919796328632 C 0.0 **** -0.24
9622 H 51.245513227693834 165.8756855679552 151.59314142586203 H 0.0 **** 0.06
9623 H 51.62757741501309 165.72990778345164 153.3255620717159 H 0.0 **** 0.06
9624 H 49.963966359604626 166.09660683377476 152.80924379115206 H 0.0 **** 0.06
9625 H 51.2426333227903 167.322615073334 152.62973015914872 H 0.0 **** 0.06
9626 C 81.99587677313752 24.906146918770503 172.73538955004196 C 0.0 **** -0.24
9627 H 82.55516966143564 24.94424789575112 171.80028475279434 H 0.0 **** 0.06
9628 H 82.65884547340754 25.154513231987437 173.56467170036007 H 0.0 **** 0.06
9629 H 81.59543456681993 23.9020541778861 172.87810260146134 H 0.0 **** 0.06
9630 H 81.17568601882114 25.62253050668636 172.6971554508315 H 0.0 **** 0.06
9631 C 12.302413627525631 70.8031480960295 165.68690114512822 C 0.0 **** -0.24
9632 H 12.79816379489715 70.02981841766369 166.27275448445891 H 0.0 **** 0.06
9633 H 13.005106182627735 71.61132590492677 165.4822575356206 H 0.0 **** 0.06
9634 H 11.452500918400304 71.19511208601682 166.24728659816577 H 0.0 **** 0.06
9635 H 11.951917831765208 70.37853208631509 164.74586546939952 H 0.0 **** 0.06
9636 C 83.71013390521256 36.91660691539536 149.02444391120008 C 0.0 **** -0.24
9637 H 82.87712818916026 36.265871516767504 149.29174733929545 H 0.0 **** 0.06
9638 H 83.50506156200998 37.39334222819798 148.06621849694199 H 0.0 **** 0.06
9639 H 84.62300590688244 36.326368341577194 148.9496689329191 H 0.0 **** 0.06
9640 H 83.83346694278458 37.68057710143148 149.7928648479646 H 0.0 **** 0.06
9641 C 141.12993598189223 115.68950442341401 83.87643478736551 C 0.0 **** -0.24
9642 H 142.108520517586 115.93019156205412 83.46097577069058 H 0.0 **** 0.06
9643 H 140.38495122325986 116.37188090595708 83.46767175085965 H 0.0 **** 0.06
9644 H 141.16087904618564 115.7911987826987 84.9617379704616 H 0.0 **** 0.06
9645 H 140.8673286601476 114.66444129757053 83.61575460865248 H 0.0 **** 0.06
9646 C 45.19178664221735 128.59477970037597 101.31589547664603 C 0.0 **** -0.24
9647 H 44.50059251514412 128.44469057670264 102.14492750486 H 0.0 **** 0.06
9648 H 44.953190452769604 127.8981301736093 100.5129942083417 H 0.0 **** 0.06
9649 H 46.212465818541204 128.42098047089058 101.65748301716238 H 0.0 **** 0.06
9650 H 45.101491450614674 129.61693516544275 100.94835341518714 H 0.0 **** 0.06
9651 C 30.016154330852032 109.54478073628505 123.99332641191955 C 0.0 **** -0.24
9652 H 29.718973917249514 108.50772734552896 123.83979716072335 H 0.0 **** 0.06
9653 H 31.023643491355415 109.69518172659207 123.60467832514598 H 0.0 **** 0.06
9654 H 29.998984868459672 109.77302102910997 125.05921513716964 H 0.0 **** 0.06
9655 H 29.322047775927672 110.20296467343204 123.46972617367271 H 0.0 **** 0.06
9656 C 0.8278707743157554 53.06642745644399 158.22856578396426 C 0.0 **** -0.24
9657 H 0.6704390071619457 53.179234835816544 157.15565528719264 H 0.0 **** 0.06
9658 H 1.5760569047029378 52.294148384656125 158.40673909886732 H 0.0 **** 0.06
9659 H -0.11065436257598549 52.78060365787792 158.70384834984708 H 0.0 **** 0.06
9660 H 1.17277153538447 54.01177127864736 158.64669338406958 H 0.0 **** 0.06
9661 C 43.5138377908214 7.654512354210809 96.95069624533585 C 0.0 **** -0.24
9662 H 44.0253832442278 7.921600008919349 97.87619916797613 H 0.0 **** 0.06
9663 H 43.166388167233876 6.6226315418748385 97.01384663644757 H 0.0 **** 0.06
9664 H 44.20352415032342 7.755464999146952 96.11262197804274 H 0.0 **** 0.06
9665 H 42.66219145108333 8.31681472077041 96.80277664319567 H 0.0 **** 0.06
9666 C 105.09839046948443 44.96705830572243 69.86629572984423 C 0.0 **** -0.24
9667 H 105.33509510865673 45.25786419126992 70.88999834713117 H 0.0 **** 0.06
9668 H 104.07782788451482 45.26906722928601 69.63064808944497 H 0.0 **** 0.06
9669 H 105.19134083366146 43.885998776516175 69.76462618207434 H 0.0 **** 0.06
9670 H 105.78951779626902 45.45717115091294 69.18111941625057 H 0.0 **** 0.06
9671 C 41.30857667866702 0.8175579978522549 14.327112938532935 C 0.0 **** -0.24
9672 H 41.21358495586952 1.5998372868342514 13.57507980897384 H 0.0 **** 0.06
9673 H 42.044197088542504 0.08371509904667818 13.99650528354806 H 0.0 **** 0.06
9674 H 40.34423190856569 0.33010431350283653 14.468276808413151 H 0.0 **** 0.06
9675 H 41.63458098610974 1.2589105237720801 15.270409499519985 H 0.0 **** 0.06
9676 C 62.181908687659615 129.18321195346454 139.75450219801928 C 0.0 **** -0.24
9677 H 62.94519990462106 129.8537493937464 139.36058694726535 H 0.0 **** 0.06
9678 H 62.64877580858678 128.25575744390306 140.08651186128847 H 0.0 **** 0.06
9679 H 61.45306459402261 128.9645561000205 138.9736180135564 H 0.0 **** 0.06
9680 H 61.67918516833549 129.65958708813625 140.59668329636287 H 0.0 **** 0.06
9681 C 127.40149690146177 100.2755053445953 164.75142234711217 C 0.0 **** -0.24
9682 H 126.49451525748967 99.69278068777251 164.5874483128747 H 0.0 **** 0.06
9683 H 127.54628752713566 100.42735801755532 165.82148386499833 H 0.0 **** 0.06
9684 H 127.30658541230676 101.24228677810717 164.2572628106093 H 0.0 **** 0.06
9685 H 128.25682827181308 99.73943307650882 164.34084965019485 H 0.0 **** 0.06
9686 C 87.92169701983914 134.9324813552318 128.6539529327471 C 0.0 **** -0.24
9687 H 89.0059204334068 135.04045220371466 128.67387920179934 H 0.0 **** 0.06
9688 H 87.47618572571162 135.82840174070995 128.22047794928102 H 0.0 **** 0.06
9689 H 87.55160581758742 134.7965070717898 129.67003643085317 H 0.0 **** 0.06
9690 H 87.65365904802991 134.06511278651772 128.05025216966192 H 0.0 **** 0.06
9691 C 128.61479909769093 160.2709601867672 142.2104653621865 C 0.0 **** -0.24
9692 H 129.42511121384507 159.55442199637434 142.07169391586066 H 0.0 **** 0.06
9693 H 128.01721853235307 159.98126752569783 143.07514728736942 H 0.0 **** 0.06
9694 H 127.98465148763825 160.28240150962898 141.32052474525617 H 0.0 **** 0.06
9695 H 129.03245608543784 161.26448799469404 142.37296248815193 H 0.0 **** 0.06
9696 C 26.086794585386343 120.56548323023355 155.50824682169986 C 0.0 **** -0.24
9697 H 25.827796190110035 120.26939641268501 154.4919542463796 H 0.0 **** 0.06
9698 H 25.688879077409297 121.56034045764366 155.70931532215684 H 0.0 **** 0.06
9699 H 27.171898102345097 120.57866686372017 155.61641691199748 H 0.0 **** 0.06
9700 H 25.65996379505043 119.85292082324008 156.21335564295157 H 0.0 **** 0.06
9701 C 161.05497494244318 4.483627243536546 157.96321908773933 C 0.0 **** -0.24
9702 H 161.04488249603702 3.5291428555762536 158.48852837993255 H 0.0 **** 0.06
9703 H 161.98610512152402 4.581961198266242 157.40567429854542 H 0.0 **** 0.06
9704 H 160.97525402253413 5.296777086186978 158.6853292723558 H 0.0 **** 0.06
9705 H 160.21175018991698 4.527140270460507 157.27365630810894 H 0.0 **** 0.06
9706 C 119.92887666711067 71.14917663660182 158.5387734380069 C 0.0 **** -0.24
9707 H 119.80244870905747 72.21025182047296 158.32033202271043 H 0.0 **** 0.06
9708 H 120.22814921217196 71.02747071485737 159.5802218631468 H 0.0 **** 0.06
9709 H 120.69864167239831 70.73412524782452 157.88783689877596 H 0.0 **** 0.06
9710 H 118.98767485427098 70.62784526072025 158.36701808186382 H 0.0 **** 0.06
9711 C 160.73483073047578 73.27550338901875 49.47856328857651 C 0.0 **** -0.24
9712 H 160.92241748900426 74.05532565482662 48.739702233837875 H 0.0 **** 0.06
9713 H 160.68135626620767 73.72091628973314 50.47227905875678 H 0.0 **** 0.06
9714 H 161.54529522068788 72.5472349353276 49.45042875186317 H 0.0 **** 0.06
9715 H 159.7923740606252 72.77814663910914 49.25067985894668 H 0.0 **** 0.06
9716 C 121.7108799498007 114.35002112802215 96.88396486416963 C 0.0 **** -0.24
9717 H 121.9250237123536 115.36829633662546 97.2103760566635 H 0.0 **** 0.06
9718 H 120.95489865010416 114.37166857054277 96.09911911897038 H 0.0 **** 0.06
9719 H 121.3429595536673 113.76795621664354 97.72847962757808 H 0.0 **** 0.06
9720 H 122.62357699352987 113.89417502615271 96.49844617454508 H 0.0 **** 0.06
9721 C 76.20320309776824 97.80497694090991 125.94702606234168 C 0.0 **** -0.24
9722 H 75.66322065053492 97.05668876926475 125.36675547249448 H 0.0 **** 0.06
9723 H 77.20132767891931 97.4331088331395 126.17992225133057 H 0.0 **** 0.06
9724 H 75.66411815292611 98.00507946964825 126.87341993451054 H 0.0 **** 0.06
9725 H 76.28373984810301 98.72446845753859 125.36728614977449 H 0.0 **** 0.06
9726 C 124.08144656631765 113.88226527675545 8.207168351865164 C 0.0 **** -0.24
9727 H 124.16543536601284 113.94590044286707 9.29301119942545 H 0.0 **** 0.06
9728 H 124.57499958733803 112.97545521675227 7.85766568505926 H 0.0 **** 0.06
9729 H 124.55617909605914 114.75234437531094 7.755078166241333 H 0.0 **** 0.06
9730 H 123.02868406469449 113.85475833509352 7.9264395468266 H 0.0 **** 0.06
9731 C 107.75410858475595 63.293580755447024 90.56265103748473 C 0.0 **** -0.24
9732 H 107.78008955415063 63.61337521433404 91.60377669961207 H 0.0 **** 0.06
9733 H 108.67591878283588 62.76386287026871 90.32147865735419 H 0.0 **** 0.06
9734 H 107.65671601771547 64.16663125171945 89.91625507235096 H 0.0 **** 0.06
9735 H 106.90212909205115 62.63106766587185 90.40763634374918 H 0.0 **** 0.06
9736 C 52.9751323138717 107.89957403742545 73.41362148110916 C 0.0 **** -0.24
9737 H 53.74136854090186 108.59471504129323 73.07138881717712 H 0.0 **** 0.06
9738 H 52.46108754522152 108.32112511628412 74.27756236764145 H 0.0 **** 0.06
9739 H 53.44042286283829 106.95388293583272 73.69307139297361 H 0.0 **** 0.06
9740 H 52.25693640336037 107.72775852223094 72.6115539884099 H 0.0 **** 0.06
9741 C 169.23023855816467 153.0373694151951 53.91980062393097 C 0.0 **** -0.24
9742 H 168.4189040675919 153.40120339997156 53.289299741427044 H 0.0 **** 0.06
9743 H 169.78010119849307 153.8847063093401 54.329949940818466 H 0.0 **** 0.06
9744 H 169.9031731396333 152.4203108670185 53.325238638621 H 0.0 **** 0.06
9745 H 168.81743969624287 152.44280911769457 54.73459527822567 H 0.0 **** 0.06
9746 C 158.416911372899 36.68048756854114 124.91951178670479 C 0.0 **** -0.24
9747 H 158.14628977968184 35.90541178653092 125.63690127998768 H 0.0 **** 0.06
9748 H 157.53744029689489 36.960479806898405 124.33930995196852 H 0.0 **** 0.06
9749 H 159.18804893960424 36.300550597645554 124.24918205946867 H 0.0 **** 0.06
9750 H 158.79458065188564 37.55261983458337 125.45258344420614 H 0.0 **** 0.06
9751 C 37.78029490229693 112.8066871413831 20.82488477392988 C 0.0 **** -0.24
9752 H 38.39739196248087 112.67364883431017 19.93595326415391 H 0.0 **** 0.06
9753 H 37.11268185439371 113.65638718290336 20.679885256558578 H 0.0 **** 0.06
9754 H 38.42085684264919 112.98987390891284 21.68684890257157 H 0.0 **** 0.06
9755 H 37.19026538258731 111.90619908645738 20.995242080629822 H 0.0 **** 0.06
9756 C 14.426710597503558 86.11310908040568 90.42668056910297 C 0.0 **** -0.24
9757 H 15.19937954102884 85.40069576229774 90.13702532122298 H 0.0 **** 0.06
9758 H 14.6706354019162 87.09680973314875 90.02582037689608 H 0.0 **** 0.06
9759 H 14.371785238880207 86.16627498303617 91.51395182044483 H 0.0 **** 0.06
9760 H 13.46458875999415 85.7869899393857 90.0309343424867 H 0.0 **** 0.06
9761 C 148.53323718927345 66.03017160392403 162.74268913847447 C 0.0 **** -0.24
9762 H 148.3691043311189 66.44696230275831 161.74972989363582 H 0.0 **** 0.06
9763 H 149.57114466618594 66.18733673872356 163.0360700728113 H 0.0 **** 0.06
9764 H 148.3166379769395 64.96204881919307 162.7287363608083 H 0.0 **** 0.06
9765 H 147.874562994658 66.52555529405723 163.45772798911298 H 0.0 **** 0.06
9766 C 19.055881077715902 47.37380212772517 61.01510103183557 C 0.0 **** -0.24
9767 H 18.903542122236935 46.46205658452469 60.437840188408316 H 0.0 **** 0.06
9768 H 20.12401026386324 47.57544177421272 61.100603669799256 H 0.0 **** 0.06
9769 H 18.628004076239776 47.250473342546485 62.01030778661887 H 0.0 **** 0.06
9770 H 18.56757021265932 48.208555972001335 60.51133349633119 H 0.0 **** 0.06
9771 C 29.774142157831974 115.83050822396802 123.42918259945998 C 0.0 **** -0.24
9772 H 30.3331727132462 114.9883397019056 123.8375295291248 H 0.0 **** 0.06
9773 H 30.37720994847143 116.33471608166667 122.67299617619972 H 0.0 **** 0.06
9774 H 29.53646496583316 116.53037380086437 124.23020376464882 H 0.0 **** 0.06
9775 H 28.851647412750538 115.46898982067694 122.97637465343558 H 0.0 **** 0.06
9776 C 86.0067192864749 48.47471428725029 172.4703937518338 C 0.0 **** -0.24
9777 H 85.78055205710999 48.29242977122411 173.52111918361715 H 0.0 **** 0.06
9778 H 87.06212363446984 48.274186565240655 172.286177906156 H 0.0 **** 0.06
9779 H 85.78531836889485 49.513732498319825 172.2262217255397 H 0.0 **** 0.06
9780 H 85.39819637126531 47.81753960963533 171.84882436580529 H 0.0 **** 0.06
9781 C 15.33580087732286 91.15285605544503 11.098247238037565 C 0.0 **** -0.24
9782 H 16.27020500985303 91.00594903324333 11.64045148464352 H 0.0 **** 0.06
9783 H 14.515516883245354 91.25391192395404 11.809207207234536 H 0.0 **** 0.06
9784 H 15.153412178746123 90.29458587769793 10.451654749615031 H 0.0 **** 0.06
9785 H 15.40618417585111 92.05632059019757 10.491986379203048 H 0.0 **** 0.06
9786 C 97.87926698249686 80.78475021268082 152.2596032935505 C 0.0 **** -0.24
9787 H 97.65195231895188 80.25826253215843 151.33254506642538 H 0.0 **** 0.06
9788 H 97.25567441691518 81.676008960984 152.3324617340638 H 0.0 **** 0.06
9789 H 98.9297869379489 81.07355000759503 152.265820760011 H 0.0 **** 0.06
9790 H 97.67739675773376 80.12881030135816 153.10704559828034 H 0.0 **** 0.06
9791 C 170.4193542462844 135.66017873199428 51.0307331974511 C 0.0 **** -0.24
9792 H 169.72558010774998 136.49789620681867 50.948046359657155 H 0.0 **** 0.06
9793 H 169.89361848452705 134.73139077773777 50.811931925050175 H 0.0 **** 0.06
9794 H 170.82107589842656 135.62161361260027 52.042868370220134 H 0.0 **** 0.06
9795 H 171.23510287072702 135.79275494440728 50.32052555492746 H 0.0 **** 0.06
9796 C 91.79472753790259 74.78091761936372 37.021507549068644 C 0.0 **** -0.24
9797 H 92.27207803137455 75.70398211855448 36.69187345678108 H 0.0 **** 0.06
9798 H 92.51667196806127 73.96391197008111 36.98179288400513 H 0.0 **** 0.06
9799 H 90.9529739960107 74.55272967475453 36.36710442951153 H 0.0 **** 0.06
9800 H 91.43821183994864 74.90119663111643 38.04402438207131 H 0.0 **** 0.06
9801 C 139.62211475071692 27.373756884791334 172.729274041829 C 0.0 **** -0.24
9802 H 140.28965680914771 26.697403422578674 173.26319892466054 H 0.0 **** 0.06
9803 H 138.78234609182778 26.81047884057844 172.32300859423668 H 0.0 **** 0.06
9804 H 140.16634569857317 27.85419964279137 171.91592932463882 H 0.0 **** 0.06
9805 H 139.2513369628671 28.13537730211533 173.41752504572347 H 0.0 **** 0.06
9806 C 123.41095759457954 150.5502722357709 6.837050947570255 C 0.0 **** -0.24
9807 H 123.59119952974913 149.47977506261125 6.739815014917099 H 0.0 **** 0.06
9808 H 122.62776857836423 150.8512823060207 6.140930914307482 H 0.0 **** 0.06
9809 H 124.32680140942239 151.09563311467267 6.611787166843158 H 0.0 **** 0.06
9810 H 123.09609546022523 150.77405432408182 7.856680105393572 H 0.0 **** 0.06
9811 C 127.228619018811 55.009141061806616 115.18989312182788 C 0.0 **** -0.24
9812 H 127.63547415241959 55.47834106131502 116.0854060655357 H 0.0 **** 0.06
9813 H 126.17408537703082 54.77918795308962 115.34722905244806 H 0.0 **** 0.06
9814 H 127.77420200345128 54.08908215728211 114.98189315692508 H 0.0 **** 0.06
9815 H 127.32947026074547 55.690276654169665 114.34445504685533 H 0.0 **** 0.06
9816 C 41.52713630020003 169.62854704471096 134.2367588942251 C 0.0 **** -0.24
9817 H 41.86103430167924 170.16343503821963 135.1252486878825 H 0.0 **** 0.06
9818 H 42.14401192001978 169.916646081407 133.38625694485427 H 0.0 **** 0.06
9819 H 40.48558243884598 169.87766793503792 134.03233889241517 H 0.0 **** 0.06
9820 H 41.61721946635173 168.5547395448592 134.40446606459852 H 0.0 **** 0.06
9821 C 106.21651054640424 60.62715494527333 99.07610806276267 C 0.0 **** -0.24
9822 H 107.01183213700847 61.306635702548874 98.7707498542926 H 0.0 **** 0.06
9823 H 105.68983073561455 61.04595609891078 99.93332282097123 H 0.0 **** 0.06
9824 H 106.6479380387128 59.66395009049671 99.34950324669404 H 0.0 **** 0.06
9825 H 105.51775583915881 60.49134472008018 98.24999931910855 H 0.0 **** 0.06
9826 C 160.1055228299296 74.53828868715959 100.59532770674153 C 0.0 **** -0.24
9827 H 159.88563963924645 75.23843112952629 101.40187228373446 H 0.0 **** 0.06
9828 H 159.72267971550818 73.55158138109951 100.8567488957506 H 0.0 **** 0.06
9829 H 161.18389782618183 74.48189686793052 100.44750176095266 H 0.0 **** 0.06
9830 H 159.63057365443635 74.88108971638816 99.67676476114991 H 0.0 **** 0.06
9831 C 46.45423432284099 55.7375077341796 135.5242943658888 C 0.0 **** -0.24
9832 H 47.496571846448006 55.79506187842621 135.21134360036038 H 0.0 **** 0.06
9833 H 46.39565037518983 55.28875117397378 136.51522353496975 H 0.0 **** 0.06
9834 H 45.89573025659803 55.12631711522222 134.81446941940231 H 0.0 **** 0.06
9835 H 46.0283129468652 56.740431849888395 135.55293671529438 H 0.0 **** 0.06
9836 C 71.39306895379269 130.94098005368437 95.75274686525734 C 0.0 **** -0.24
9837 H 71.38090151525249 131.34702011463224 94.7418326376553 H 0.0 **** 0.06
9838 H 72.41278833812135 130.65750591367956 96.01749020294659 H 0.0 **** 0.06
9839 H 70.74898652649321 130.06348655859944 95.80072760138063 H 0.0 **** 0.06
9840 H 71.03306410149226 131.6952729631249 96.45219942942617 H 0.0 **** 0.06
9841 C 143.51587425311828 165.6475434034617 61.87487085179802 C 0.0 **** -0.24
9842 H 144.1596817544675 164.96827860123562 61.31675043942977 H 0.0 **** 0.06
9843 H 143.84094452428678 166.6746053994815 61.70833807857423 H 0.0 **** 0.06
9844 H 143.57613433162751 165.41429343236882 62.93721228332902 H 0.0 **** 0.06
9845 H 142.48655323948108 165.5324384090933 61.53527068170965 H 0.0 **** 0.06
9846 C 100.99889262225656 3.458706117666452 89.67751422786834 C 0.0 **** -0.24
9847 H 101.89336526395272 3.933217050534182 89.27478946570655 H 0.0 **** 0.06
9848 H 100.2125158862977 4.204650958320144 89.79413377079904 H 0.0 **** 0.06
9849 H 101.22868224483435 3.016758201773996 90.64729923910843 H 0.0 **** 0.06
9850 H 100.66284737055148 2.6786100481078847 88.99353255433164 H 0.0 **** 0.06
9851 C 148.45269602336737 11.337181107930121 171.21254116785673 C 0.0 **** -0.24
9852 H 148.86738866361483 11.89596976228372 170.3730315111332 H 0.0 **** 0.06
9853 H 148.99241310724418 10.396538367957533 171.32311194364848 H 0.0 **** 0.06
9854 H 147.39856398149988 11.1307841359749 171.02594768591382 H 0.0 **** 0.06
9855 H 148.55314957096812 11.924047480657478 172.1248257139439 H 0.0 **** 0.06
9856 C 119.68010940119183 139.51156744649404 6.066356230144152 C 0.0 **** -0.24
9857 H 119.41442792009235 140.2275739585305 5.2877316417805105 H 0.0 **** 0.06
9858 H 118.78584819797521 139.23058735385274 6.621825624214068 H 0.0 **** 0.06
9859 H 120.40349279094909 139.96432457517056 6.745126930752804 H 0.0 **** 0.06
9860 H 120.11800887796329 138.62414504291326 5.60872239435048 H 0.0 **** 0.06
9861 C 20.282582636270064 153.49498075980478 8.008210507847252 C 0.0 **** -0.24
9862 H 21.063995765710956 153.25219118366948 7.28777873378408 H 0.0 **** 0.06
9863 H 19.411319729726358 152.86652606459285 7.82420283551113 H 0.0 **** 0.06
9864 H 20.004143866207727 154.54358705864752 7.900828566983336 H 0.0 **** 0.06
9865 H 20.652981121414427 153.31880015549524 9.018256324113224 H 0.0 **** 0.06
9866 C 121.56547455156777 135.59615639060365 5.455282106742288 C 0.0 **** -0.24
9867 H 121.98151629507558 134.59172661916062 5.530496956604907 H 0.0 **** 0.06
9868 H 120.49233521071949 135.55982532431068 5.6494553926332 H 0.0 **** 0.06
9869 H 121.74014445689721 135.98830987830985 4.453998322466248 H 0.0 **** 0.06
9870 H 122.04546634465945 136.24377639845505 6.189434276272834 H 0.0 **** 0.06
9871 C 80.75911637588534 108.26487262824747 3.3502327549705058 C 0.0 **** -0.24
9872 H 80.63020400645324 109.34030434375182 3.222344322701133 H 0.0 **** 0.06
9873 H 81.14336330453082 107.8325109991278 2.426751902507334 H 0.0 **** 0.06
9874 H 79.79748723403355 107.81180328066347 3.5920979157040733 H 0.0 **** 0.06
9875 H 81.46313029140785 108.0782264467295 4.160475782065134 H 0.0 **** 0.06
9876 C 133.33058366893536 93.83412252590219 145.0016562668919 C 0.0 **** -0.24
9877 H 133.96795908711428 94.54214727805157 145.5319785564636 H 0.0 **** 0.06
9878 H 133.66240381300358 92.81770070985115 145.21291975596995 H 0.0 **** 0.06
9879 H 133.39222120238904 94.02118847018474 143.92966917382765 H 0.0 **** 0.06
9880 H 132.2988138706476 93.95648086746868 145.33231731039302 H 0.0 **** 0.06
9881 C 145.82095144234802 123.77188418874417 147.11967287209637 C 0.0 **** -0.24
9882 H 145.47962139801197 122.91736777495649 147.7050562678741 H 0.0 **** 0.06
9883 H 145.31833502369903 123.77236472963742 146.15189773251103 H 0.0 **** 0.06
9884 H 146.89839634387334 123.70196952622817 146.97073125548724 H 0.0 **** 0.06
9885 H 145.58636082024464 124.69341296245219 147.65239995296906 H 0.0 **** 0.06
9886 C 39.980801572068174 40.45361155076114 86.57977883796566 C 0.0 **** -0.24
9887 H 40.0103922822729 39.44352147313285 86.98640220818615 H 0.0 **** 0.06
9888 H 38.943113468898616 40.77254226027358 86.4754676488824 H 0.0 **** 0.06
9889 H 40.46469123949271 40.466259028503785 85.60281925106976 H 0.0 **** 0.06
9890 H 40.504164146484044 41.132483621710534 87.25335104821053 H 0.0 **** 0.06
9891 C 91.2996821855403 62.15779116036964 104.15128286325972 C 0.0 **** -0.24
9892 H 92.12114556710719 62.76716209395022 104.53004163175058 H 0.0 **** 0.06
9893 H 91.50161642633931 61.8784508535702 103.117187247721 H 0.0 **** 0.06
9894 H 90.37262539452823 62.72765351892315 104.20008594157991 H 0.0 **** 0.06
9895 H 91.20590831094489 61.25767135326964 104.75898261155143 H 0.0 **** 0.06
9896 C 119.60163833087682 117.24211989318249 31.100256830619685 C 0.0 **** -0.24
9897 H 119.08728216378464 117.46975945081044 30.16585906269333 H 0.0 **** 0.06
9898 H 119.18269328633684 117.85129868836506 31.902045124747275 H 0.0 **** 0.06
9899 H 120.66293180418597 117.46194542547602 30.993331492395555 H 0.0 **** 0.06
9900 H 119.4703717333114 116.18664575746774 31.33840932505956 H 0.0 **** 0.06
9901 C 164.35323753572015 116.82542792560636 91.98509981838617 C 0.0 **** -0.24
9902 H 165.11280335608166 117.20560612313255 91.30191061248922 H 0.0 **** 0.06
9903 H 164.185100510564 117.55231499411926 92.78014530954226 H 0.0 **** 0.06
9904 H 164.6916374987824 115.88473809502332 92.41848102277606 H 0.0 **** 0.06
9905 H 163.4236788924861 116.66127195801212 91.43982856575519 H 0.0 **** 0.06
9906 C 32.41362108133532 100.85920305351448 136.16840070081682 C 0.0 **** -0.24
9907 H 31.658568478614114 100.07275670669429 136.14542409485253 H 0.0 **** 0.06
9908 H 33.07669388964831 100.75128855491539 135.309230091736 H 0.0 **** 0.06
9909 H 32.99374259392292 100.77764796974685 137.08796527342727 H 0.0 **** 0.06
9910 H 31.925592928130982 101.83212778966063 136.13118363947842 H 0.0 **** 0.06
9911 C 88.93936318370038 108.36215033225415 99.47048195083613 C 0.0 **** -0.24
9912 H 88.17888445634844 109.07995342183168 99.77650971145297 H 0.0 **** 0.06
9913 H 89.5111835735122 108.77158330552052 98.63722071295297 H 0.0 **** 0.06
9914 H 88.4583988381703 107.43414607371815 99.16086995625736 H 0.0 **** 0.06
9915 H 89.60826357183294 108.16357950111811 100.3075309722349 H 0.0 **** 0.06
9916 C 100.87869422797155 108.87600337864018 55.79370914727889 C 0.0 **** -0.24
9917 H 100.14626139279423 109.25420233035723 56.506932031120584 H 0.0 **** 0.06
9918 H 100.36538847662055 108.5331316236227 54.894374171314496 H 0.0 **** 0.06
9919 H 101.42409152292748 108.04481041618507 56.24006351325562 H 0.0 **** 0.06
9920 H 101.57691226851708 109.67066540219398 55.53325956356031 H 0.0 **** 0.06
9921 C 166.59823130596172 126.2720366186241 18.25325388873364 C 0.0 **** -0.24
9922 H 166.04160230180872 125.52217802820385 17.69082750176773 H 0.0 **** 0.06
9923 H 165.91828579591058 126.80394749478086 18.92037319566157 H 0.0 **** 0.06
9924 H 167.0552042616445 126.97898379779619 17.56112992904616 H 0.0 **** 0.06
9925 H 167.3754390728488 125.78317254280421 18.840183332010042 H 0.0 **** 0.06
9926 C 66.4678357793612 29.7206239139949 162.08259596287067 C 0.0 **** -0.24
9927 H 66.36126951599229 30.231669785127366 161.12555994285012 H 0.0 **** 0.06
9928 H 66.95245640387387 28.756708953122313 161.92754441820938 H 0.0 **** 0.06
9929 H 65.48185452459019 29.56566640273769 162.5223212860142 H 0.0 **** 0.06
9930 H 67.0734600812123 30.32922889311037 162.75465428631483 H 0.0 **** 0.06
9931 C 29.09849912804681 21.118120784680535 101.54516396465814 C 0.0 **** -0.24
9932 H 29.735194466613095 20.343484617714125 101.97193911046344 H 0.0 **** 0.06
9933 H 28.05867132282171 20.791152820780553 101.57491790782859 H 0.0 **** 0.06
9934 H 29.392856844237386 21.301313881185045 100.51133562561895 H 0.0 **** 0.06
9935 H 29.207273878515124 22.036531819042544 102.12246321472162 H 0.0 **** 0.06
9936 C 168.0038455377973 165.10453959659654 65.35908140669085 C 0.0 **** -0.24
9937 H 168.3348117189985 165.89665964986074 66.03169602849681 H 0.0 **** 0.06
9938 H 166.95951672046803 164.8671698815866 65.5646103721003 H 0.0 **** 0.06
9939 H 168.61584257867418 164.21651953145678 65.51505945847269 H 0.0 **** 0.06
9940 H 168.10469717488897 165.43918193319686 64.3266485332901 H 0.0 **** 0.06
9941 C 6.972864342733153 153.8579255030694 81.72456853782806 C 0.0 **** -0.24
9942 H 6.264566908239566 153.36002287397162 82.38642493350649 H 0.0 **** 0.06
9943 H 7.397380537393133 153.12979165300283 81.03303018293995 H 0.0 **** 0.06
9944 H 7.770795840182878 154.3052995295617 82.31604799753582 H 0.0 **** 0.06
9945 H 6.457742315125778 154.6353568061943 81.16088952159338 H 0.0 **** 0.06
9946 C 52.65032872938775 158.74100263669465 61.19516454630161 C 0.0 **** -0.24
9947 H 53.00664543095684 158.46512137450108 60.202679724124465 H 0.0 **** 0.06
9948 H 52.00352913776685 159.61489411541893 61.11953950408669 H 0.0 **** 0.06
9949 H 53.50150380540974 158.9721924911873 61.83580206742187 H 0.0 **** 0.06
9950 H 52.0893838781375 157.90898591333348 61.62269030604179 H 0.0 **** 0.06
9951 C 137.78797781484997 138.85458708886085 151.35682407167258 C 0.0 **** -0.24
9952 H 138.26453808731353 139.1025567104202 152.30538485827373 H 0.0 **** 0.06
9953 H 138.43958307799346 138.19340926121845 150.78603809545547 H 0.0 **** 0.06
9954 H 137.61151500682482 139.7689866554851 150.79068938293682 H 0.0 **** 0.06
9955 H 136.83785363235722 138.35594266182915 151.5471893647481 H 0.0 **** 0.06
9956 C 152.84584771748808 84.59315803507423 19.532541157407877 C 0.0 **** -0.24
9957 H 153.08408109398752 84.66438436621206 20.594525100783756 H 0.0 **** 0.06
9958 H 153.47275014279253 85.28845401933205 18.973052938904914 H 0.0 **** 0.06
9959 H 151.79659494873334 84.84347300963361 19.377924829589972 H 0.0 **** 0.06
9960 H 153.03226880263836 83.5766344711567 19.187229434490632 H 0.0 **** 0.06
9961 C 68.66646063280166 96.85076617653209 31.882027141416017 C 0.0 **** -0.24
9962 H 68.98404066267443 95.89385124094503 32.294360589818496 H 0.0 **** 0.06
9963 H 68.29362862404577 96.70357976024343 30.868044568885296 H 0.0 **** 0.06
9964 H 69.51426421205639 97.53655666905621 31.861249371265842 H 0.0 **** 0.06
9965 H 67.87489360654183 97.2700146689366 32.50338093650441 H 0.0 **** 0.06
9966 C 171.17542864113537 139.96056847854177 52.058537938800214 C 0.0 **** -0.24
9967 H 171.46388579419678 139.8358076411527 51.01489174126749 H 0.0 **** 0.06
9968 H 170.19435563290685 140.43392125643356 52.10870877322179 H 0.0 **** 0.06
9969 H 171.90829894989452 140.58745569062114 52.56505514306059 H 0.0 **** 0.06
9970 H 171.13378129370565 138.98516908261172 52.54284021041326 H 0.0 **** 0.06
9971 C 112.19294362090693 71.5981275601166 144.9107969637577 C 0.0 **** -0.24
9972 H 112.38312331179804 71.71295185746544 145.97715253543765 H 0.0 **** 0.06
9973 H 111.36543087286623 70.90360545294581 144.76260820807113 H 0.0 **** 0.06
9974 H 113.08622958409939 71.21022739489537 144.42133212130025 H 0.0 **** 0.06
9975 H 111.9350636685545 72.56686102060935 144.48109632465935 H 0.0 **** 0.06
9976 C 169.75356350547196 154.21117682635457 49.93680442943025 C 0.0 **** -0.24
9977 H 170.7402805854365 154.63672132688666 49.74921040733676 H 0.0 **** 0.06
9978 H 169.20692988143762 154.85469081437964 50.627482838719516 H 0.0 **** 0.06
9979 H 169.86278590067866 153.2186324021035 50.37415237572304 H 0.0 **** 0.06
9980 H 169.20614047717467 154.13657080418128 48.997719168605784 H 0.0 **** 0.06
9981 C 119.62196165826265 140.04081075455645 129.83208068739472 C 0.0 **** -0.24
9982 H 119.99778791085538 139.48286546299462 130.69002583652093 H 0.0 **** 0.06
9983 H 118.53165468961103 140.04874410582607 129.8529611477878 H 0.0 **** 0.06
9984 H 119.96508559414775 139.5654863114964 128.9123808108424 H 0.0 **** 0.06
9985 H 119.9943497920458 141.06408298701302 129.87213290917106 H 0.0 **** 0.06
9986 C 44.327894511088246 39.41131368282629 40.29992041227338 C 0.0 **** -0.24
9987 H 44.89889500323504 38.58104487310888 40.71593764332599 H 0.0 **** 0.06
9988 H 43.448838185642686 39.025206955254646 39.78437725919049 H 0.0 **** 0.06
9989 H 44.95049486635233 39.962395579460576 39.594605769661726 H 0.0 **** 0.06
9990 H 44.01571969192891 40.07662436050222 41.10414098825241 H 0.0 **** 0.06
9991 C 164.38881874496553 85.01422055825394 9.89777415811642 C 0.0 **** -0.24
9992 H 164.24976794567309 85.0858386668544 10.976804243612463 H 0.0 **** 0.06
9993 H 164.5912493432165 86.00582484630183 9.491412238493325 H 0.0 **** 0.06
9994 H 163.48447007107794 84.61091040464987 9.44170333868962 H 0.0 **** 0.06
9995 H 165.22909352190618 84.35487383173471 9.68385984027563 H 0.0 **** 0.06
9996 C 24.21112667317422 121.54924547920876 95.14627813990404 C 0.0 **** -0.24
9997 H 25.020447655547656 121.30488488371248 95.83446535119924 H 0.0 **** 0.06
9998 H 24.576620471217268 122.23687562086161 94.38362929833153 H 0.0 **** 0.06
9999 H 23.394937940989763 122.01689354194883 95.6971215233153 H 0.0 **** 0.06
10000 H 23.850886645259607 120.63684162676878 94.67032799929649 H 0.0 **** 0.06
10001 C 75.29483348860379 60.79094065654098 12.243134827745337 C 0.0 **** -0.24
10002 H 76.3819402826431 60.776332324195295 12.326947870658046 H 0.0 **** 0.06
10003 H 74.9617400998275 59.91160640523462 11.693416531283049 H 0.0 **** 0.06
10004 H 74.98341098797992 61.69171005455459 11.712933223361063 H 0.0 **** 0.06
10005 H 74.8544135192133 60.78571168971369 13.24055856638364 H 0.0 **** 0.06
10006 C 46.79075974820523 100.59442835516455 57.475099798262875 C 0.0 **** -0.24
10007 H 47.51622757904994 100.10448140783294 56.82519779211549 H 0.0 **** 0.06
10008 H 47.05621276792175 100.41301811084435 58.51631840455174 H 0.0 **** 0.06
10009 H 45.79702200173648 100.19360404950007 57.2770913839682 H 0.0 **** 0.06
10010 H 46.79554809667451 101.66698783874185 57.279798944696864 H 0.0 **** 0.06
10011 C 43.41004634395853 59.78670632120527 77.62477601253984 C 0.0 **** -0.24
10012 H 44.31537863673125 59.57624772207758 78.19480480451053 H 0.0 **** 0.06
10013 H 42.54367350397875 59.72450463685901 78.283073232579 H 0.0 **** 0.06
10014 H 43.30995723342747 59.0572952984255 76.8208394961702 H 0.0 **** 0.06
10015 H 43.47329829805396 60.789034635772396 77.20104221847667 H 0.0 **** 0.06
10016 C 8.280221949479817 89.22519948695216 53.9319088863823 C 0.0 **** -0.24
10017 H 7.200373858411936 89.30187955779337 54.0637060261091 H 0.0 **** 0.06
10018 H 8.698029502597102 88.59674597191533 54.71813608060788 H 0.0 **** 0.06
10019 H 8.723415650437332 90.2191372483229 53.98475988166051 H 0.0 **** 0.06
10020 H 8.495412374904447 88.78233502254473 52.95926129217804 H 0.0 **** 0.06
10021 C 76.21256532168098 24.298124548399834 143.4670743637958 C 0.0 **** -0.24
10022 H 75.13556084059888 24.13491316786626 143.50548759858472 H 0.0 **** 0.06
10023 H 76.48912041007054 24.656694520800166 142.47480570749175 H 0.0 **** 0.06
10024 H 76.73059732240608 23.361304063260256 143.67283494345733 H 0.0 **** 0.06
10025 H 76.49444732640032 25.041307341550976 144.21298927731155 H 0.0 **** 0.06
10026 C 72.9710189111895 121.12314530497929 2.906485480378791 C 0.0 **** -0.24
10027 H 73.41880933133294 122.06758541835885 2.5956047547108483 H 0.0 **** 0.06
10028 H 73.74706899346063 120.46516371001968 3.2964183610934583 H 0.0 **** 0.06
10029 H 72.4897405693182 120.65069899276324 2.0510512147383793 H 0.0 **** 0.06
10030 H 72.23026117031338 121.31152958060986 3.6828330096399213 H 0.0 **** 0.06
10031 C 154.79093365913388 139.5976289233699 27.77358282396662 C 0.0 **** -0.24
10032 H 154.6328425967322 140.67261164622352 27.85959179501951 H 0.0 **** 0.06
10033 H 155.7441182441919 139.40992623212935 27.27854236841216 H 0.0 **** 0.06
10034 H 153.9840767952444 139.1568595965303 27.188893538682386 H 0.0 **** 0.06
10035 H 154.80436741843084 139.15140815955763 28.768761598344838 H 0.0 **** 0.06
10036 C 170.2915813962669 131.19972869950635 0.1416799293562292 C 0.0 **** -0.24
10037 H 170.32043964241993 131.05130325758657 -0.9374193491771337 H 0.0 **** 0.06
10038 H 169.48046777017197 131.88384405264117 0.39176404361748496 H 0.0 **** 0.06
10039 H 171.23919116941516 131.62097454200645 0.47615686466821217 H 0.0 **** 0.06
10040 H 170.12496006487783 130.24174947877142 0.6346995458314098 H 0.0 **** 0.06
10041 C 71.51839644245686 73.47340637099114 154.39111884765214 C 0.0 **** -0.24
10042 H 71.78321313125241 72.49976826670354 154.80488711827098 H 0.0 **** 0.06
10043 H 72.37568108296387 73.88761491181208 153.86035287463577 H 0.0 **** 0.06
10044 H 71.23203330573187 74.14531615620226 155.20117293400878 H 0.0 **** 0.06
10045 H 70.68241660069174 73.3596314493735 153.70110641920496 H 0.0 **** 0.06
10046 C 154.36907220914813 78.2848667991309 133.30398164987747 C 0.0 **** -0.24
10047 H 153.5109101073465 77.92239242868813 132.7389822750627 H 0.0 **** 0.06
10048 H 155.26993461754202 77.77424108909524 132.96265701008082 H 0.0 **** 0.06
10049 H 154.21728425984108 78.08452083003496 134.36402177247408 H 0.0 **** 0.06
10050 H 154.47947173903802 79.35812709091887 133.1487673570533 H 0.0 **** 0.06
10051 C 146.2314328811794 61.105485679977846 64.57690204269926 C 0.0 **** -0.24
10052 H 147.09524090413245 60.44036987271831 64.55178477038201 H 0.0 **** 0.06
10053 H 145.33949567368634 60.554326137193186 64.27939682606709 H 0.0 **** 0.06
10054 H 146.39251151144856 61.93497319806954 63.8884034478654 H 0.0 **** 0.06
10055 H 146.10035800374007 61.4934336798713 65.58764876871923 H 0.0 **** 0.06
10056 C 123.5632399785232 134.04604062050703 119.18696540660545 C 0.0 **** -0.24
10057 H 122.5866965823908 133.7659192278291 118.79133148412046 H 0.0 **** 0.06
10058 H 124.22876022325886 133.18259587411532 119.1573648477206 H 0.0 **** 0.06
10059 H 123.45337078534675 134.3849760106437 120.21721331555386 H 0.0 **** 0.06
10060 H 123.98380277312589 134.85012006956532 118.58271846007511 H 0.0 **** 0.06
10061 C 0.32088673828106806 73.26204052980296 78.47012760955786 C 0.0 **** -0.24
10062 H -0.25849970206696327 73.23254054182485 77.54775118580616 H 0.0 **** 0.06
10063 H 1.1168806492606151 74.00246655774174 78.37601465484731 H 0.0 **** 0.06
10064 H 0.7571797712862463 72.281758708123 78.6563239171975 H 0.0 **** 0.06
10065 H -0.3312988603290279 73.53342358116834 79.29980486527518 H 0.0 **** 0.06
10066 C 114.36330900210723 118.57947580117653 105.20060978082981 C 0.0 **** -0.24
10067 H 113.5140021776595 119.26334577772411 105.22285830982776 H 0.0 **** 0.06
10068 H 114.87153403265674 118.66356346476192 104.2403625472389 H 0.0 **** 0.06
10069 H 114.00880703625162 117.55762853709754 105.336380598744 H 0.0 **** 0.06
10070 H 115.05559169103472 118.83367978936136 106.00290410376994 H 0.0 **** 0.06
10071 C 14.4698094534873 63.38824865435528 152.4458005887708 C 0.0 **** -0.24
10072 H 13.713578439323754 62.63371282170709 152.22792784709293 H 0.0 **** 0.06
10073 H 14.740985241214304 63.33657172852948 153.50052917378983 H 0.0 **** 0.06
10074 H 14.071548211969912 64.37758308322798 152.22073936415384 H 0.0 **** 0.06
10075 H 15.352822013984053 63.203762348564226 151.83421919848735 H 0.0 **** 0.06
10076 C 145.66640309292129 60.151085166888834 147.16864705444905 C 0.0 **** -0.24
10077 H 146.6327362289168 59.959941376821575 147.63318817408893 H 0.0 **** 0.06
10078 H 145.09143853384217 59.225018966241635 147.1322551312125 H 0.0 **** 0.06
10079 H 145.81805861736774 60.52396937699257 146.15504398127487 H 0.0 **** 0.06
10080 H 145.12332584786836 60.894144243791914 147.75120387809906 H 0.0 **** 0.06
10081 C 119.58082794173419 129.93277064137425 133.48138579783074 C 0.0 **** -0.24
10082 H 119.38087662770053 129.69985170407708 134.52782043885512 H 0.0 **** 0.06
10083 H 119.23576251232674 129.11179868429107 132.85380787671062 H 0.0 **** 0.06
10084 H 120.65249842505926 130.07388374252622 133.34042602599385 H 0.0 **** 0.06
10085 H 119.0551756416325 130.8476101437097 133.20691623196575 H 0.0 **** 0.06
10086 C 129.01045281435069 32.81184469744295 150.8261736849827 C 0.0 **** -0.24
10087 H 129.42964692146418 31.83170248951916 151.053424067218 H 0.0 **** 0.06
10088 H 128.33529100000186 32.730057370980745 149.9734383291766 H 0.0 **** 0.06
10089 H 129.81765487821647 33.504469139285106 150.58583554279386 H 0.0 **** 0.06
10090 H 128.46055063655552 33.18145078059479 151.6916297039311 H 0.0 **** 0.06
10091 C 28.657576568101092 156.97442528028967 160.8971729210018 C 0.0 **** -0.24
10092 H 29.7120058548702 156.69935865910332 160.91551440998427 H 0.0 **** 0.06
10093 H 28.559554258019006 158.04839340366058 161.05464759729972 H 0.0 **** 0.06
10094 H 28.130202846257987 156.44075656803045 161.68897459920052 H 0.0 **** 0.06
10095 H 28.228668705762658 156.70770281958855 159.93195619833466 H 0.0 **** 0.06
10096 C 171.22779189822904 90.12401797285406 43.16975126167097 C 0.0 **** -0.24
10097 H 170.9623593150941 90.35519176034126 42.13702744894181 H 0.0 **** 0.06
10098 H 170.44408011369364 89.51376330304765 43.61795126713632 H 0.0 **** 0.06
10099 H 171.33480813957817 91.05075150598219 43.73265679644754 H 0.0 **** 0.06
10100 H 172.16980480121708 89.57653859445145 43.18805939707504 H 0.0 **** 0.06
10101 C 78.34422157202727 94.2912171448805 100.14091589269293 C 0.0 **** -0.24
10102 H 78.64866104575003 93.9880030900101 99.1386584118888 H 0.0 **** 0.06
10103 H 79.11431350692625 94.92732535862311 100.57797075618606 H 0.0 **** 0.06
10104 H 78.20786509128598 93.40513451058925 100.76196234633647 H 0.0 **** 0.06
10105 H 77.40598966813563 94.84297335386981 100.08335580863144 H 0.0 **** 0.06
10106 C 86.55395454984017 113.72107646089947 159.09808995805403 C 0.0 **** -0.24
10107 H 87.28849117964917 114.50235340693473 159.29201118551296 H 0.0 **** 0.06
10108 H 86.85133393466519 113.15436513510431 158.21450124049372 H 0.0 **** 0.06
10109 H 85.57750925980224 114.17466870455232 158.9270494170126 H 0.0 **** 0.06
10110 H 86.49818782128224 113.05281848304008 159.95709433352613 H 0.0 **** 0.06
10111 C 117.346204804335 163.8645631320459 106.14815022799442 C 0.0 **** -0.24
10112 H 116.86021401201964 164.73751821034247 106.58442374220286 H 0.0 **** 0.06
10113 H 118.30053800992002 164.1614252120183 105.71261809807604 H 0.0 **** 0.06
10114 H 116.70706589660105 163.44425126391022 105.37093300831967 H 0.0 **** 0.06
10115 H 117.51594427149473 163.11749254126403 106.92322778453274 H 0.0 **** 0.06
10116 C 43.31394484551629 137.68038941389108 107.66288367110661 C 0.0 **** -0.24
10117 H 43.61227867437765 137.2473510085175 106.70943635699348 H 0.0 **** 0.06
10118 H 42.36446955913132 137.2477848296603 107.97803781692335 H 0.0 **** 0.06
10119 H 43.20312579902219 138.75912283960827 107.55391802373276 H 0.0 **** 0.06
10120 H 44.076986538578666 137.46767441192014 108.41291563135348 H 0.0 **** 0.06
10121 C 115.9073550302947 28.549981488351335 53.217983586111416 C 0.0 **** -0.24
10122 H 115.3342001274892 27.623142124312324 53.248272949385296 H 0.0 **** 0.06
10123 H 115.34452943094749 29.30653861999957 52.66913214886985 H 0.0 **** 0.06
10124 H 116.8599979092748 28.371053633728593 52.71861741229931 H 0.0 **** 0.06
10125 H 116.08909239521083 28.898608766196872 54.23415124462113 H 0.0 **** 0.06
10126 C 62.96452335767587 96.8870542114058 59.370437002073174 C 0.0 **** -0.24
10127 H 63.079145869520275 95.94149993270759 59.89845869917896 H 0.0 **** 0.06
10128 H 63.38519189536443 97.69225183433306 59.97329848903168 H 0.0 **** 0.06
10129 H 61.906475938459764 97.07985847530423 59.19480573418112 H 0.0 **** 0.06
10130 H 63.488134500469116 96.83666857899203 58.41619394004178 H 0.0 **** 0.06
10131 C 89.0865664770904 111.95986862439227 57.818847409468134 C 0.0 **** -0.24
10132 H 89.75737109095712 111.5232331375193 57.077974379663246 H 0.0 **** 0.06
10133 H 88.07232635082568 111.60128444233368 57.64445267374661 H 0.0 **** 0.06
10134 H 89.10966491881942 113.0458019132333 57.733421940802984 H 0.0 **** 0.06
10135 H 89.40976337840362 111.66735044333961 58.817181533105 H 0.0 **** 0.06
10136 C 55.36014113277952 144.6842702093058 112.79097221692047 C 0.0 **** -0.24
10137 H 55.121356628173515 143.6255613737708 112.90050210583257 H 0.0 **** 0.06
10138 H 56.02644288534481 144.81884844583072 111.9390556422357 H 0.0 **** 0.06
10139 H 55.850503273571746 145.04078544375332 113.69671281914754 H 0.0 **** 0.06
10140 H 54.44237858539748 145.24787674035062 112.6285754194576 H 0.0 **** 0.06
10141 C 64.05091991920857 25.42985027341723 102.35354822411705 C 0.0 **** -0.24
10142 H 63.91534039673117 24.916967242250394 101.40135949586374 H 0.0 **** 0.06
10143 H 64.63010027938722 26.33940902423103 102.19697507588035 H 0.0 **** 0.06
10144 H 64.58124412494571 24.774879238840356 103.0452876138715 H 0.0 **** 0.06
10145 H 63.07703564408693 25.68591014664713 102.77053496158078 H 0.0 **** 0.06
10146 C 121.36017247059999 162.86105876841418 75.32093114676681 C 0.0 **** -0.24
10147 H 120.55210410741813 163.35242899487776 74.77766045295 H 0.0 **** 0.06
10148 H 121.77917913464483 162.06525663593138 74.70592013986408 H 0.0 **** 0.06
10149 H 120.97009223319071 162.4396538554338 76.24753866860337 H 0.0 **** 0.06
10150 H 122.1374664798256 163.58995992816085 75.55216334881963 H 0.0 **** 0.06
10151 C 54.600269700602894 17.34840245057569 56.611437994507625 C 0.0 **** -0.24
10152 H 55.490742510926395 17.619416414748173 57.179582184271865 H 0.0 **** 0.06
10153 H 54.18296198350009 16.423855547657183 57.01011890994188 H 0.0 **** 0.06
10154 H 54.86769795953347 17.20546097381333 55.56421879110776 H 0.0 **** 0.06
10155 H 53.861526778643906 18.146252919741812 56.692658259778014 H 0.0 **** 0.06
10156 C 167.9362432780334 154.87329344912854 84.9484377450841 C 0.0 **** -0.24
10157 H 167.46748599388837 155.0799639062148 83.98666173281384 H 0.0 **** 0.06
10158 H 167.1749926843545 154.85486922107802 85.72797174053153 H 0.0 **** 0.06
10159 H 168.66580826495755 155.65201374788992 85.17140818952441 H 0.0 **** 0.06
10160 H 168.4389566795532 153.90677565889897 84.90690708077375 H 0.0 **** 0.06
10161 C 50.05864681023667 27.081887812770503 118.87165046328266 C 0.0 **** -0.24
10162 H 50.63889267993355 26.219728182523454 118.54459900558996 H 0.0 **** 0.06
10163 H 50.284730289638446 27.93595725202158 118.23168960976054 H 0.0 **** 0.06
10164 H 50.31500151662061 27.323449027893446 119.90313804296042 H 0.0 **** 0.06
10165 H 48.99534327356815 26.850979565127545 118.80615116200332 H 0.0 **** 0.06
10166 C 51.060644437426305 99.86108018037021 102.94320212173108 C 0.0 **** -0.24
10167 H 49.97766189713056 99.74761020246527 102.88298085072273 H 0.0 **** 0.06
10168 H 51.44786286966817 99.2287399338719 103.74152276886258 H 0.0 **** 0.06
10169 H 51.30523885178131 100.90220366270123 103.15245229878514 H 0.0 **** 0.06
10170 H 51.509676524603506 99.5657352313537 101.99519699728177 H 0.0 **** 0.06
10171 C 84.51351937993178 2.010451415699947 137.20674367996793 C 0.0 **** -0.24
10172 H 83.75691712183101 2.7272352852195354 137.52659380799412 H 0.0 **** 0.06
10173 H 84.32473376667787 1.7200550651641038 136.17344017895076 H 0.0 **** 0.06
10174 H 84.47060803503115 1.1281812821731023 137.84610292067146 H 0.0 **** 0.06
10175 H 85.50063425815608 2.4657541412859416 137.28264369483315 H 0.0 **** 0.06
10176 C 81.37556597087371 0.7487953882582588 149.3615939710927 C 0.0 **** -0.24
10177 H 80.71549549651513 0.9112922520614575 150.21434478821578 H 0.0 **** 0.06
10178 H 82.0071661270299 -0.11910053181469493 149.55120963517567 H 0.0 **** 0.06
10179 H 82.00061168611194 1.6291247139619713 149.2140226369532 H 0.0 **** 0.06
10180 H 80.77578637598435 0.5746584027136805 148.46712150658908 H 0.0 **** 0.06
10181 C 166.14493541229592 9.515589472083413 146.62608037107088 C 0.0 **** -0.24
10182 H 167.19933790674474 9.627150578152623 146.87971730965313 H 0.0 **** 0.06
10183 H 165.58434308287354 10.362320755835228 147.02170335835595 H 0.0 **** 0.06
10184 H 165.7636612338692 8.591005242377143 147.06143911331574 H 0.0 **** 0.06
10185 H 166.03432862775364 9.47911085801615 145.54223829777072 H 0.0 **** 0.06
10186 C 156.62946152371393 37.162134694069834 148.07919023748778 C 0.0 **** -0.24
10187 H 155.9094984544932 36.3839424891768 147.82696961847694 H 0.0 **** 0.06
10188 H 157.31226316985797 37.310076175175936 147.24284377780685 H 0.0 **** 0.06
10189 H 157.19526328871925 36.86161091348288 148.96224236753676 H 0.0 **** 0.06
10190 H 156.1007194348329 38.092531962261205 148.2860643756994 H 0.0 **** 0.06
10191 C 32.14701722044805 105.74349257298718 166.85261978266024 C 0.0 **** -0.24
10192 H 32.22714119477726 106.80414052212376 166.6126191854626 H 0.0 **** 0.06
10193 H 32.0677838083235 105.16792724837237 165.93019861137844 H 0.0 **** 0.06
10194 H 31.26044135293307 105.57514849316146 167.4632069271277 H 0.0 **** 0.06
10195 H 33.03284192503028 105.42735290859801 167.4031808423493 H 0.0 **** 0.06
10196 C 27.082943320741123 54.59882428344966 45.69590947684833 C 0.0 **** -0.24
10197 H 27.06191280828571 53.52837111352517 45.90337742269374 H 0.0 **** 0.06
10198 H 26.225422816448997 54.8646676890435 45.07639587637881 H 0.0 **** 0.06
10199 H 28.003619473968854 54.848528389620355 45.169571719081716 H 0.0 **** 0.06
10200 H 27.03832902726765 55.15156198169882 46.634615928769776 H 0.0 **** 0.06
10201 C 6.422500587507983 58.68677276763205 110.41278228646826 C 0.0 **** -0.24
10202 H 5.475265076571006 58.17324314445642 110.57323900705501 H 0.0 **** 0.06
10203 H 7.228488033268377 58.113827562875926 110.8714327182177 H 0.0 **** 0.06
10204 H 6.3792572261758735 59.678990360267264 110.86368525787583 H 0.0 **** 0.06
10205 H 6.607043380125731 58.782380957185325 109.34235702421421 H 0.0 **** 0.06
10206 C 32.377105902246456 158.2755147205202 148.61699446282068 C 0.0 **** -0.24
10207 H 31.343369977359487 158.62153224975458 148.6239298794536 H 0.0 **** 0.06
10208 H 32.73545121751647 158.22231905465023 147.5885052469725 H 0.0 **** 0.06
10209 H 32.4327970173116 157.28779749071472 149.0732491327451 H 0.0 **** 0.06
10210 H 32.99636973703275 158.9726004148512 149.18240674670471 H 0.0 **** 0.06
10211 C 142.2317382221633 88.18499429650899 74.07293707464709 C 0.0 **** -0.24
10212 H 141.79072122738398 88.95907716564136 74.70043838066454 H 0.0 **** 0.06
10213 H 143.24275081621417 87.96982865963514 74.41842435381318 H 0.0 **** 0.06
10214 H 142.2669364304497 88.53275062626358 73.0396177352871 H 0.0 **** 0.06
10215 H 141.62671436155284 87.28073915678175 74.1312374025132 H 0.0 **** 0.06
10216 C 119.31827046949815 169.34553844598662 146.03207925415796 C 0.0 **** -0.24
10217 H 119.00373184005144 168.32073588178002 146.2304106708052 H 0.0 **** 0.06
10218 H 118.79860734322205 170.02275794944492 146.71006610582884 H 0.0 **** 0.06
10219 H 119.07487264329382 169.6061378913785 145.0014000363435 H 0.0 **** 0.06
10220 H 120.39365247908535 169.4320870039753 146.18446704644003 H 0.0 **** 0.06
10221 C 140.49132911711752 38.61398945294445 58.638880593421106 C 0.0 **** -0.24
10222 H 140.20442842761636 37.99875951033613 57.785924378758736 H 0.0 **** 0.06
10223 H 141.0894248414694 39.45757716678179 58.29273685372905 H 0.0 **** 0.06
10224 H 141.07657415088863 38.01582964998693 59.33662643479805 H 0.0 **** 0.06
10225 H 139.5956064431095 38.983322015304054 59.137539309037095 H 0.0 **** 0.06
10226 C 82.63879590949301 54.77261398391015 163.81841645161384 C 0.0 **** -0.24
10227 H 82.03642301338435 55.302193951358035 163.07946099128904 H 0.0 **** 0.06
10228 H 83.54821878115541 54.40120173076521 163.34500205375508 H 0.0 **** 0.06
10229 H 82.06809165933795 53.9347126887818 164.2173214905751 H 0.0 **** 0.06
10230 H 82.901254670649 55.4525458865737 164.62834124158528 H 0.0 **** 0.06
10231 C 52.73719959433866 24.76546644272409 155.53953499272637 C 0.0 **** -0.24
10232 H 53.417815191375624 24.622311284649612 156.37825793222356 H 0.0 **** 0.06
10233 H 53.29888238430382 24.732965109845082 154.60573453026169 H 0.0 **** 0.06
10234 H 52.24325204323303 25.733620736184065 155.6325044363079 H 0.0 **** 0.06
10235 H 51.98694138992434 23.97441667417786 155.53983603188695 H 0.0 **** 0.06
10236 C 39.61106799038967 8.534333085471388 78.3458786683644 C 0.0 **** -0.24
10237 H 39.3640037483525 9.502767975011352 78.78097901691248 H 0.0 **** 0.06
10238 H 38.748266132154725 8.152265512940659 77.79881418168164 H 0.0 **** 0.06
10239 H 39.87506058779337 7.8361867303034956 79.14043185666256 H 0.0 **** 0.06
10240 H 40.4533826256997 8.645417306159004 77.66421270077025 H 0.0 **** 0.06
10241 C 170.09803294739214 108.32289254311829 111.55860966001916 C 0.0 **** -0.24
10242 H 169.72586937058594 109.28565183732809 111.20953663744746 H 0.0 **** 0.06
10243 H 170.1300898786179 107.62136503421272 110.72532418881119 H 0.0 **** 0.06
10244 H 169.43516922901725 107.93678681214539 112.33296309354907 H 0.0 **** 0.06
10245 H 171.10028924014492 108.4474930414118 111.96871602189165 H 0.0 **** 0.06
10246 C 87.47989873632218 49.71567409427091 142.08288397145685 C 0.0 **** -0.24
10247 H 88.11287389435716 50.24626202996244 141.37233063221382 H 0.0 **** 0.06
10248 H 86.93102709384894 48.929754272288775 141.5636102943599 H 0.0 **** 0.06
10249 H 86.77580631692186 50.41500829983197 142.53459155373758 H 0.0 **** 0.06
10250 H 88.1008572718895 49.27321858197915 142.8618202985382 H 0.0 **** 0.06
10251 C 61.30195776056621 129.72935251719036 50.8164256848725 C 0.0 **** -0.24
10252 H 60.68052678098918 129.69241713825926 49.920803809043065 H 0.0 **** 0.06
10253 H 60.999646000774234 130.57714427537587 51.433308163030844 H 0.0 **** 0.06
10254 H 62.347266157405855 129.84363621138118 50.52874393603382 H 0.0 **** 0.06
10255 H 61.17948100983237 128.80578124061014 51.381539572753624 H 0.0 **** 0.06
10256 C 110.51416811890823 12.41072530141372 80.08916093295434 C 0.0 **** -0.24
10257 H 110.7115849784206 11.354413325050302 79.90442653082033 H 0.0 **** 0.06
10258 H 109.52565746554376 12.666478830513597 79.70758524288482 H 0.0 **** 0.06
10259 H 111.26755348753801 13.01404613371281 79.58474484822622 H 0.0 **** 0.06
10260 H 110.55110093184129 12.6036950079436 81.160975200787 H 0.0 **** 0.06
10261 C 89.99450534014169 92.82584779763766 119.39840193778443 C 0.0 **** -0.24
10262 H 90.7580172798962 92.07092040197455 119.21296109424199 H 0.0 **** 0.06
10263 H 90.15424732309808 93.67552280179126 118.73354322323459 H 0.0 **** 0.06
10264 H 90.05785853227049 93.15861078225879 120.43441996535591 H 0.0 **** 0.06
10265 H 89.00900164445561 92.39985596092794 119.21337336459482 H 0.0 **** 0.06
10266 C 3.0255862358325345 133.7376908724553 124.93908502831258 C 0.0 **** -0.24
10267 H 3.400754191987552 134.5969083122996 124.38376299488613 H 0.0 **** 0.06
10268 H 2.7070413704657668 132.96424599990024 124.24009405001783 H 0.0 **** 0.06
10269 H 2.1783308052177475 134.04547673841137 125.55300792198292 H 0.0 **** 0.06
10270 H 3.8151834611452173 133.3470343010742 125.58070317035171 H 0.0 **** 0.06
10271 C 59.71824602667144 24.88827915898746 57.15866889606316 C 0.0 **** -0.24
10272 H 59.129043314296524 24.53174595006555 56.313200713735384 H 0.0 **** 0.06
10273 H 59.1089286300037 25.554609613374687 57.77073283922164 H 0.0 **** 0.06
10274 H 60.59097669691175 25.427991344765452 56.791465805215424 H 0.0 **** 0.06
10275 H 60.041824755217874 24.038806659729445 57.75961019591858 H 0.0 **** 0.06
10276 C 28.713327368094838 22.646118597168766 94.22711658882301 C 0.0 **** -0.24
10277 H 27.702503105267 22.4263121840483 93.88510254500795 H 0.0 **** 0.06
10278 H 29.01800105658907 21.903143986775035 94.96287320825286 H 0.0 **** 0.06
10279 H 28.735224948995835 23.637356416792784 94.68042253134672 H 0.0 **** 0.06
10280 H 29.397313476375587 22.62057547568014 93.37773576205069 H 0.0 **** 0.06
10281 C 16.98410857281155 24.725026542521363 61.57666799335456 C 0.0 **** -0.24
10282 H 16.69369908586509 24.433874907512035 62.585953003084015 H 0.0 **** 0.06
10283 H 17.961858569844964 24.302280556115164 61.34384835936687 H 0.0 **** 0.06
10284 H 17.032814944431408 25.81125075546788 61.51052577939615 H 0.0 **** 0.06
10285 H 16.247857971089786 24.35020073398232 60.8650361543926 H 0.0 **** 0.06
10286 C 117.83875160134079 51.541607128612725 109.73694309508116 C 0.0 **** -0.24
10287 H 118.79760011042873 51.59012454666032 110.2526511234455 H 0.0 **** 0.06
10288 H 117.09137529174853 51.10632198006016 110.40064912099439 H 0.0 **** 0.06
10289 H 117.93728146962818 50.92438535053077 108.84471874630782 H 0.0 **** 0.06
10290 H 117.52976417740689 52.54705315292992 109.45144135503202 H 0.0 **** 0.06
10291 C 170.65520593754061 119.88373276425503 157.8647896222869 C 0.0 **** -0.24
10292 H 169.60180006432066 119.70474727969167 158.0814909447316 H 0.0 **** 0.06
10293 H 170.9625439057137 120.82780228117161 158.31596512976208 H 0.0 **** 0.06
10294 H 170.80062894202547 119.93105256002423 156.7861111998272 H 0.0 **** 0.06
10295 H 171.25406612773452 119.07172953221857 158.2768774773732 H 0.0 **** 0.06
10296 C 112.99600132779943 122.15498848622252 30.613681686926213 C 0.0 **** -0.24
10297 H 112.98981687071412 123.2344871518761 30.7648358174511 H 0.0 **** 0.06
10298 H 113.728483118747 121.69942017259842 31.280976342631973 H 0.0 **** 0.06
10299 H 113.260351919626 121.93562200170575 29.57878878409376 H 0.0 **** 0.06
10300 H 112.00671684677164 121.75182175681118 30.829690906402845 H 0.0 **** 0.06
10301 C 171.84744938245683 46.99934144781106 46.98398783011885 C 0.0 **** -0.24
10302 H 171.4160102722293 47.312057930662036 46.03345331615628 H 0.0 **** 0.06
10303 H 172.64813888926756 47.68588900531118 47.26245327291383 H 0.0 **** 0.06
10304 H 172.2496151192372 45.991185221620356 46.88623857577761 H 0.0 **** 0.06
10305 H 171.07575242439373 47.010643260847274 47.75346703639599 H 0.0 **** 0.06
10306 C 50.33707207188267 164.57510487073841 158.81386035611925 C 0.0 **** -0.24
10307 H 50.469550308301976 165.21239002453154 159.68832553105864 H 0.0 **** 0.06
10308 H 50.70974316051067 163.57506547539577 159.03370718901118 H 0.0 **** 0.06
10309 H 50.88980584888304 164.99247907208758 157.97283698959143 H 0.0 **** 0.06
10310 H 49.278039798722645 164.52079337139267 158.56183042117473 H 0.0 **** 0.06
10311 C 120.09244172896359 99.38329497233917 40.0440736150111 C 0.0 **** -0.24
10312 H 120.11078468862479 100.47263884990335 40.02181107932957 H 0.0 **** 0.06
10313 H 119.78797451554277 99.04511708958864 41.034581879745616 H 0.0 **** 0.06
10314 H 121.08746889835578 98.99918637576764 39.81891653841183 H 0.0 **** 0.06
10315 H 119.38453940521646 99.01671874472143 39.30010897935391 H 0.0 **** 0.06
10316 C 118.87907521288002 143.5505643210542 11.70818470781424 C 0.0 **** -0.24
10317 H 117.79080271945327 143.5774186976475 11.652578873050004 H 0.0 **** 0.06
10318 H 119.19651286674343 142.60691856774494 12.15314453127371 H 0.0 **** 0.06
10319 H 119.23197906383078 144.37922196796802 12.322429425031999 H 0.0 **** 0.06
10320 H 119.29597573043063 143.63789010273274 10.705120235075384 H 0.0 **** 0.06
10321 C 138.58062846062 79.6681921939955 38.21091667187733 C 0.0 **** -0.24
10322 H 138.8968794652137 79.8649291499068 39.23554297966251 H 0.0 **** 0.06
10323 H 139.19271155539766 78.87051880523384 37.7890486151627 H 0.0 **** 0.06
10324 H 138.69944779975583 80.57235609035335 37.61423938416948 H 0.0 **** 0.06
10325 H 137.53413720250376 79.36419793611094 38.2068291184508 H 0.0 **** 0.06
10326 C 163.4342826822119 142.85866423939768 160.3580464897708 C 0.0 **** -0.24
10327 H 164.06625445765326 142.1401986948378 159.83435557932222 H 0.0 **** 0.06
10328 H 163.0840872930923 142.42058986709702 161.29271767274994 H 0.0 **** 0.06
10329 H 162.57851979730498 143.1138432052017 159.73181026630374 H 0.0 **** 0.06
10330 H 164.00934110152932 143.75954177964078 160.57115361137 H 0.0 **** 0.06
10331 C 68.46069015047445 58.269087492874235 57.84299936670473 C 0.0 **** -0.24
10332 H 69.20269477986663 57.79285143240449 58.484518308335765 H 0.0 **** 0.06
10333 H 67.470889146149 57.87777076422938 58.08181189569139 H 0.0 **** 0.06
10334 H 68.69437624499646 58.05760321245515 56.800128156910574 H 0.0 **** 0.06
10335 H 68.47536775785737 59.34660105084919 58.008430015753376 H 0.0 **** 0.06
10336 C 82.70055767733925 86.29998922795437 162.90218612183943 C 0.0 **** -0.24
10337 H 81.80018321624102 85.69656025436888 163.01511739891907 H 0.0 **** 0.06
10338 H 82.58156196261024 87.23706432181905 163.44665420214045 H 0.0 **** 0.06
10339 H 82.865286242916 86.51148214862508 161.84590045248243 H 0.0 **** 0.06
10340 H 83.55596867154793 85.75391898337125 163.29983106686188 H 0.0 **** 0.06
10341 C 97.16961487319293 157.89083219151485 65.07561084570796 C 0.0 **** -0.24
10342 H 96.38356394470392 157.22164196224608 65.42612842373808 H 0.0 **** 0.06
10343 H 96.98309500137452 158.15518354503408 64.03416573568279 H 0.0 **** 0.06
10344 H 98.13448695977704 157.39148276019222 65.15651914366572 H 0.0 **** 0.06
10345 H 97.17502888247068 158.79449244083798 65.68492194967155 H 0.0 **** 0.06
10346 C 47.759222251575466 169.32997792638133 135.1817215375153 C 0.0 **** -0.24
10347 H 47.490522674469844 168.96547298264232 134.1904723986489 H 0.0 **** 0.06
10348 H 46.85495581379803 169.60427921313405 135.72453751392788 H 0.0 **** 0.06
10349 H 48.40518331747063 170.2027460065175 135.0857560887168 H 0.0 **** 0.06
10350 H 48.28654887027119 168.54529903290688 135.72546770451336 H 0.0 **** 0.06
10351 C 27.318858729574316 71.64512975254513 85.55622413695853 C 0.0 **** -0.24
10352 H 27.472383664460565 72.25200681413884 84.66364387472208 H 0.0 **** 0.06
10353 H 27.8129712821017 70.68183921984746 85.42935679684369 H 0.0 **** 0.06
10354 H 26.25089839052532 71.48875277894496 85.70891057071887 H 0.0 **** 0.06
10355 H 27.738268204085628 72.15829912786165 86.42074425191093 H 0.0 **** 0.06
10356 C 55.879836277435615 86.5383716590897 168.30700852589743 C 0.0 **** -0.24
10357 H 56.48999541910885 87.3883788308188 168.61367420011825 H 0.0 **** 0.06
10358 H 55.09881083819012 86.36486900931419 169.0480181813164 H 0.0 **** 0.06
10359 H 56.50895584771082 85.65110698826192 168.22686994020896 H 0.0 **** 0.06
10360 H 55.423778725352335 86.749405076686 167.33979469807383 H 0.0 **** 0.06
10361 C 17.21462396615658 29.089167392596863 90.99503923773946 C 0.0 **** -0.24
10362 H 16.140111439778565 28.96415214276962 90.86115419829486 H 0.0 **** 0.06
10363 H 17.612469570702217 29.707987283625215 90.19056611162954 H 0.0 **** 0.06
10364 H 17.698857175640512 28.112637096774677 90.97720741744217 H 0.0 **** 0.06
10365 H 17.40724756583711 29.57186664831619 91.95345708928721 H 0.0 **** 0.06
10366 C 68.84174542488526 164.14261913149164 36.68241004403103 C 0.0 **** -0.24
10367 H 69.57251382119318 163.3626155294471 36.468176239588985 H 0.0 **** 0.06
10368 H 68.53613770179535 164.07557907694542 37.72739941513004 H 0.0 **** 0.06
10369 H 67.97187967407262 164.0100668348221 36.03998524926416 H 0.0 **** 0.06
10370 H 69.28718631999308 165.11945295530313 36.49499002176782 H 0.0 **** 0.06
10371 C 39.1713026177535 116.3827597386219 14.460371645118158 C 0.0 **** -0.24
10372 H 40.16545778590813 115.93474839123061 14.466076631976449 H 0.0 **** 0.06
10373 H 39.049159586677604 117.00531960180055 15.347659945840434 H 0.0 **** 0.06
10374 H 38.418622535487685 115.59547362527479 14.461008418978224 H 0.0 **** 0.06
10375 H 39.05575370414749 116.9970785851294 13.567175137844032 H 0.0 **** 0.06
10376 C 159.43057280839537 34.705463961735035 158.68278167052813 C 0.0 **** -0.24
10377 H 159.97932721265087 34.41054838805074 159.57784570464685 H 0.0 **** 0.06
10378 H 160.09927305012985 35.238511438801126 158.00626442515116 H 0.0 **** 0.06
10379 H 158.60161071906467 35.35572738066671 158.96389828664596 H 0.0 **** 0.06
10380 H 159.0424251396265 33.81625724914058 158.18580581503738 H 0.0 **** 0.06
10381 C 147.34475815953755 117.99855868127247 156.17815497862253 C 0.0 **** -0.24
10382 H 146.74144058637896 118.90536920827458 156.23771005988016 H 0.0 **** 0.06
10383 H 147.71430291323017 117.74335839738791 157.17192593200454 H 0.0 **** 0.06
10384 H 148.18859040312668 118.1667223186 155.5091472692413 H 0.0 **** 0.06
10385 H 146.7346789294525 117.18128515331685 155.79601567892684 H 0.0 **** 0.06
10386 C 8.951873792442669 128.00737569350605 12.253297199236272 C 0.0 **** -0.24
10387 H 9.371585265423938 128.96109973570142 12.573353316283686 H 0.0 **** 0.06
10388 H 9.004862466163253 127.29276213867914 13.07592828993387 H 0.0 **** 0.06
10389 H 9.519707425842213 127.62710486054121 11.403962016862465 H 0.0 **** 0.06
10390 H 7.911118838598981 128.1494209368747 11.961025957826877 H 0.0 **** 0.06
10391 C 39.70406288153674 82.53039227534859 15.108827984745062 C 0.0 **** -0.24
10392 H 40.703242975713565 82.65603732104188 14.69105811625218 H 0.0 **** 0.06
10393 H 39.67710932390537 81.62736459864192 15.719232543012254 H 0.0 **** 0.06
10394 H 38.98032195424365 82.44384996572367 14.29800574703711 H 0.0 **** 0.06
10395 H 39.45718820471518 83.39448862260492 15.725474216314979 H 0.0 **** 0.06
10396 C 99.43109317130518 32.86349469886153 70.70051831212419 C 0.0 **** -0.24
10397 H 98.96323710104272 32.80902685367994 71.68319329385665 H 0.0 **** 0.06
10398 H 100.4626325090043 32.51678232046049 70.77022724628858 H 0.0 **** 0.06
10399 H 99.41700807090305 33.89464336664548 70.34819998206572 H 0.0 **** 0.06
10400 H 98.88170997209448 32.23338820062179 70.00141955504478 H 0.0 **** 0.06
10401 C 113.88989313600288 124.8945782416142 35.89621948356806 C 0.0 **** -0.24
10402 H 114.2875407152687 124.98951613088354 34.88576493912994 H 0.0 **** 0.06
10403 H 113.53194343887478 123.87631504931656 36.050865184838585 H 0.0 **** 0.06
10404 H 113.0640288539841 125.59399919692004 36.0282676416909 H 0.0 **** 0.06
10405 H 114.67484685423253 125.11833874850245 36.61742890686973 H 0.0 **** 0.06
10406 C 21.780890203623898 85.41924348242105 145.22804376506772 C 0.0 **** -0.24
10407 H 22.39142962552239 84.85109229708115 145.93124934267792 H 0.0 **** 0.06
10408 H 21.098525714257534 84.74355949439774 144.71277584936544 H 0.0 **** 0.06
10409 H 22.427217735484135 85.90931992043579 144.50017840643355 H 0.0 **** 0.06
10410 H 21.208329511879555 86.1711061006967 145.77054724324339 H 0.0 **** 0.06
10411 C 33.79134790856881 81.93129052786128 31.376753739639085 C 0.0 **** -0.24
10412 H 33.508508323493345 82.20961923588078 30.361860116210522 H 0.0 **** 0.06
10413 H 33.44376540855194 80.91895281817878 31.587131976320094 H 0.0 **** 0.06
10414 H 33.33659106314502 82.62515126715107 32.083893525224596 H 0.0 **** 0.06
10415 H 34.87661201038409 81.97074204646182 31.475357082560933 H 0.0 **** 0.06
10416 C 139.38513378893214 142.61833174947765 144.94575023948414 C 0.0 **** -0.24
10417 H 139.43505595775898 142.08805897417125 143.9944843673887 H 0.0 **** 0.06
10418 H 139.25712651551288 143.6843988050196 144.76028505907053 H 0.0 **** 0.06
10419 H 140.30797243857586 142.454139083138 145.50189030629224 H 0.0 **** 0.06
10420 H 138.5397137691516 142.2453344792837 145.52472626555954 H 0.0 **** 0.06
10421 C 43.78436972172301 102.71414509891898 161.00381228558558 C 0.0 **** -0.24
10422 H 44.688448733463474 102.18575707510331 160.70080992731286 H 0.0 **** 0.06
10423 H 42.91430648601377 102.08629296295231 160.81008344407817 H 0.0 **** 0.06
10424 H 43.6981208380941 103.64051811586012 160.43573363378874 H 0.0 **** 0.06
10425 H 43.837620030805226 102.94316602591451 162.0681228619413 H 0.0 **** 0.06
10426 C 19.269111155181342 89.04250430115712 142.280220804923 C 0.0 **** -0.24
10427 H 20.25788753712593 89.29597377818197 142.66224393141036 H 0.0 **** 0.06
10428 H 19.180125619793586 87.96042555866194 142.1915341950726 H 0.0 **** 0.06
10429 H 19.130513731064383 89.50114463002876 141.3012264307603 H 0.0 **** 0.06
10430 H 18.50843472420371 89.41476590175364 142.96656900961673 H 0.0 **** 0.06
10431 C 91.73272921664801 5.7417480284264 82.5519795172952 C 0.0 **** -0.24
10432 H 92.0923404552413 6.682617107106267 82.13619195108654 H 0.0 **** 0.06
10433 H 91.72891156542806 4.9780146596564805 81.77373856746108 H 0.0 **** 0.06
10434 H 90.72143214986875 5.876655658644722 82.93449139277384 H 0.0 **** 0.06
10435 H 92.38903886089957 5.428775972203965 83.36471585800835 H 0.0 **** 0.06
10436 C 61.58934575698824 113.92591245654165 52.27285447589445 C 0.0 **** -0.24
10437 H 61.07181413485989 113.68106607485291 51.34499970748044 H 0.0 **** 0.06
10438 H 61.23492057009166 113.27130712567933 53.06933476064408 H 0.0 **** 0.06
10439 H 61.38764966102133 114.96386082493493 52.53706849284012 H 0.0 **** 0.06
10440 H 62.6622284777052 113.7868697171561 52.13798793777703 H 0.0 **** 0.06
10441 C 166.27710224646876 54.892308362920204 155.71938317582052 C 0.0 **** -0.24
10442 H 165.79448202767583 55.52126475974654 154.97198252504933 H 0.0 **** 0.06
10443 H 167.10753244306994 55.43595812362025 156.17027875322276 H 0.0 **** 0.06
10444 H 166.65206052426748 53.98599892320789 155.24426249218467 H 0.0 **** 0.06
10445 H 165.5551459768726 54.62543957839432 156.49089297452497 H 0.0 **** 0.06
10446 C 10.91253739982929 55.00521641136592 42.374963329898904 C 0.0 **** -0.24
10447 H 11.47927377333022 55.07004972681824 43.30354972705865 H 0.0 **** 0.06
10448 H 11.32549762272319 54.21217174665202 41.751914225614726 H 0.0 **** 0.06
10449 H 10.973830936539883 55.954692689505805 41.84437398974332 H 0.0 **** 0.06
10450 H 9.869364151560859 54.782541153634554 42.60230564264255 H 0.0 **** 0.06
10451 C 133.79047230866055 138.8519041780778 123.4501509535252 C 0.0 **** -0.24
10452 H 134.71444720212432 139.37055719676698 123.70454358144514 H 0.0 **** 0.06
10453 H 133.8599495027745 138.4637464052318 122.43404040623614 H 0.0 **** 0.06
10454 H 132.95402694789405 139.54654425582012 123.51860145325864 H 0.0 **** 0.06
10455 H 133.63571653998076 138.02567813538073 124.14473888168621 H 0.0 **** 0.06
10456 C 127.64507823553916 144.0964577303268 93.44149630368179 C 0.0 **** -0.24
10457 H 127.61284754841071 143.04155670429296 93.71087920247902 H 0.0 **** 0.06
10458 H 127.13207512300315 144.68246786259917 94.20460778913656 H 0.0 **** 0.06
10459 H 127.15195436978124 144.2409619983597 92.47937853551201 H 0.0 **** 0.06
10460 H 128.68300412159815 144.42213703367568 93.36965590384506 H 0.0 **** 0.06
10461 C 71.41302297316867 27.66155691247576 89.93136367985988 C 0.0 **** -0.24
10462 H 71.95400086074238 27.844776690095387 90.85959620244944 H 0.0 **** 0.06
10463 H 70.41566345364748 27.28322141060096 90.16155164350766 H 0.0 **** 0.06
10464 H 71.95238628472569 26.92644569688838 89.33539148362922 H 0.0 **** 0.06
10465 H 71.3272148948501 28.59313447396346 89.37159639085132 H 0.0 **** 0.06
10466 C 32.38398667644353 129.09167442021615 168.69198702580047 C 0.0 **** -0.24
10467 H 32.672520403243155 128.36493531290634 169.45129970142625 H 0.0 **** 0.06
10468 H 32.46559669899794 128.63724411378445 167.70445368770902 H 0.0 **** 0.06
10469 H 33.04205949070476 129.95867330831612 168.74896317107044 H 0.0 **** 0.06
10470 H 31.353571119271606 129.40553806423327 168.8634968553884 H 0.0 **** 0.06
10471 C 12.881245163088593 8.925833921748705 98.18973256944554 C 0.0 **** -0.24
10472 H 13.562548637687087 8.572033954038915 98.96321646072178 H 0.0 **** 0.06
10473 H 13.006534701300318 10.00042232480834 98.0591934442541 H 0.0 **** 0.06
10474 H 11.853822068247439 8.7129518707913 98.48719221007872 H 0.0 **** 0.06
10475 H 13.100620153307624 8.417079158804768 97.25181074465752 H 0.0 **** 0.06
10476 C 7.815093001600644 85.03223553933469 37.77869582082923 C 0.0 **** -0.24
10477 H 8.393921273745093 85.64819033080975 37.09036979709492 H 0.0 **** 0.06
10478 H 6.7647144078775625 85.32059742855274 37.72831288327569 H 0.0 **** 0.06
10479 H 8.184135857503577 85.17858531044352 38.79398115449459 H 0.0 **** 0.06
10480 H 7.919209629037766 83.98294077241455 37.50139197428075 H 0.0 **** 0.06
10481 C 147.92235752956975 151.16363730024858 158.59819278028357 C 0.0 **** -0.24
10482 H 148.82922143696038 151.7307970863024 158.80612015542206 H 0.0 **** 0.06
10483 H 148.16915322384926 150.29430008169106 157.98777742732528 H 0.0 **** 0.06
10484 H 147.21457469009482 151.79583606315896 158.06189960930354 H 0.0 **** 0.06
10485 H 147.47673056378432 150.83450978026184 159.53660146080512 H 0.0 **** 0.06
10486 C 168.71636643026818 52.34445239747191 143.85142484521194 C 0.0 **** -0.24
10487 H 169.30803039311039 53.20558787604003 143.5437845093175 H 0.0 **** 0.06
10488 H 167.8424538610882 52.25469042663633 143.20564561448717 H 0.0 **** 0.06
10489 H 168.39349762439966 52.47619924087542 144.88410179675802 H 0.0 **** 0.06
10490 H 169.32066606149357 51.44022452609083 143.77184390343098 H 0.0 **** 0.06
10491 C 102.4154434125922 126.35053438091012 59.97154905224397 C 0.0 **** -0.24
10492 H 101.35664502341393 126.18881668981032 59.7718479853508 H 0.0 **** 0.06
10493 H 102.99621640349068 125.53914760307927 59.531587183647616 H 0.0 **** 0.06
10494 H 102.58306038963025 126.37395264911837 61.04955201710527 H 0.0 **** 0.06
10495 H 102.72688708980053 127.30006402343673 59.53542349847737 H 0.0 **** 0.06
10496 C 113.36296246863625 160.8744101660591 48.890715551396696 C 0.0 **** -0.24
10497 H 114.21552105185916 160.31051870816145 48.51100843245918 H 0.0 **** 0.06
10498 H 112.94209025070259 160.35776958593536 49.753788720789586 H 0.0 **** 0.06
10499 H 112.60643017738775 160.95541292969494 48.1107779868846 H 0.0 **** 0.06
10500 H 113.68927692350033 161.8715017352009 49.18633771441921 H 0.0 **** 0.06
10501 C 42.57285238336236 42.17175386792377 63.382428087446726 C 0.0 **** -0.24
10502 H 42.83288580171758 42.77207829822649 64.25384209023548 H 0.0 **** 0.06
10503 H 41.52624834252899 41.870310508762 63.44836091366258 H 0.0 **** 0.06
10504 H 43.2056416402409 41.28525609756815 63.34995311741284 H 0.0 **** 0.06
10505 H 42.72544941073849 42.75995491987095 62.47705033251842 H 0.0 **** 0.06
10506 C 117.58572670690185 124.9631856210591 14.793734867786839 C 0.0 **** -0.24
10507 H 118.33010553366648 125.74022978951533 14.626520499794026 H 0.0 **** 0.06
10508 H 117.8139867825142 124.43460018728302 15.719228228348186 H 0.0 **** 0.06
10509 H 117.60120510101748 124.2598330512757 13.960856856519626 H 0.0 **** 0.06
10510 H 116.59681462383315 125.41630569551276 14.867228342675674 H 0.0 **** 0.06
10511 C 134.69478957216026 130.42279668672933 150.99438410003114 C 0.0 **** -0.24
10512 H 135.12971978160192 129.559355859354 150.49158312666697 H 0.0 **** 0.06
10513 H 135.42925862860056 130.85580597222884 151.67240571354807 H 0.0 **** 0.06
10514 H 133.81746347885166 130.10955963109785 151.55970139008804 H 0.0 **** 0.06
10515 H 134.40269343521814 131.16553816815605 150.25117406356128 H 0.0 **** 0.06
10516 C 68.45601862380042 48.3010413854563 13.561398115033569 C 0.0 **** -0.24
10517 H 69.15181754353688 47.471948956059805 13.696985144036603 H 0.0 **** 0.06
10518 H 67.49854189264276 48.04956409206977 14.017469011329013 H 0.0 **** 0.06
10519 H 68.31523096941214 48.48558393924134 12.497171625407987 H 0.0 **** 0.06
10520 H 68.86149059950948 49.19566044199712 14.035373264106113 H 0.0 **** 0.06
10521 C 67.17630502545376 117.60637394050659 114.09201937372663 C 0.0 **** -0.24
10522 H 67.08082945689853 118.59209108521608 114.54824008071324 H 0.0 **** 0.06
10523 H 68.1851181068169 117.22608523077906 114.25767834756482 H 0.0 **** 0.06
10524 H 66.98848891246064 117.68300927589371 113.02111960507173 H 0.0 **** 0.06
10525 H 66.45291355299054 116.92657270827542 114.54045242665939 H 0.0 **** 0.06
10526 C 48.39468649676839 10.066457252114162 16.299192310956414 C 0.0 **** -0.24
10527 H 47.6288783976745 10.833079405195946 16.416284619121484 H 0.0 **** 0.06
10528 H 48.95243494269664 10.248446559402794 15.38039758085182 H 0.0 **** 0.06
10529 H 47.92250180214924 9.085915979241861 16.2504934942055 H 0.0 **** 0.06
10530 H 49.075229100460334 10.10079309597117 17.149943155312997 H 0.0 **** 0.06
10531 C 27.110146096414304 38.72741536508528 110.71985500551204 C 0.0 **** -0.24
10532 H 26.229875470188865 38.13434238945294 110.96607082739385 H 0.0 **** 0.06
10533 H 26.885765329362933 39.78545118899001 110.85828070887825 H 0.0 **** 0.06
10534 H 27.38944888976023 38.548491648875995 109.68146998875466 H 0.0 **** 0.06
10535 H 27.934120374086916 38.44216741202604 111.37290182069037 H 0.0 **** 0.06
10536 C 80.94673044380313 104.59443834010386 132.38259725355672 C 0.0 **** -0.24
10537 H 81.10303030323578 105.28880684140239 133.20800195240204 H 0.0 **** 0.06
10538 H 81.83389143993882 104.57753157346855 131.74981474473745 H 0.0 **** 0.06
10539 H 80.08700275705598 104.91706362862027 131.79488607669103 H 0.0 **** 0.06
10540 H 80.76219885134947 103.59580603492572 132.77818262636967 H 0.0 **** 0.06
10541 C 94.22773582816924 87.73902909597798 19.525959393302116 C 0.0 **** -0.24
10542 H 93.31540136712974 88.23870459387821 19.849487404217513 H 0.0 **** 0.06
10543 H 94.16978259598864 86.67926300765566 19.77588632051703 H 0.0 **** 0.06
10544 H 95.08519162910304 88.18446520076276 20.03059234553905 H 0.0 **** 0.06
10545 H 94.34174226977035 87.85296985411618 18.447538212029002 H 0.0 **** 0.06
10546 C 11.397751198142004 39.60703059315102 29.31301208569988 C 0.0 **** -0.24
10547 H 11.12807004019411 38.86020846089875 30.059093135634555 H 0.0 **** 0.06
10548 H 12.12253252596902 40.30142280152552 29.738850896804166 H 0.0 **** 0.06
10549 H 10.50614864591278 40.15399794873099 29.00711214347504 H 0.0 **** 0.06
10550 H 11.836172442667412 39.112394301896416 28.445848342423176 H 0.0 **** 0.06
10551 C 152.03430176543168 74.69706597694086 57.44383428965642 C 0.0 **** -0.24
10552 H 151.9056401890578 73.88559706867665 56.72757693819494 H 0.0 **** 0.06
10553 H 152.66144198289197 74.35734622316434 58.26834131412092 H 0.0 **** 0.06
10554 H 151.0607440538687 75.00078748641242 57.82749662606244 H 0.0 **** 0.06
10555 H 152.510352654629 75.54425815673332 56.94992726195028 H 0.0 **** 0.06
10556 C 80.75402362797638 39.854403520334756 156.9529109905497 C 0.0 **** -0.24
10557 H 81.07520176260198 38.921275359330366 157.4166939683074 H 0.0 **** 0.06
10558 H 79.68666950378238 39.80394283944179 156.73787825757836 H 0.0 **** 0.06
10559 H 81.30565779590813 40.00727682171953 156.02587072454702 H 0.0 **** 0.06
10560 H 80.94877786223373 40.68372976243137 157.633207226705 H 0.0 **** 0.06
10561 C 59.37703423398821 94.1575142215425 161.92902077151635 C 0.0 **** -0.24
10562 H 59.607260434695476 93.18696424661954 162.36777675183546 H 0.0 **** 0.06
10563 H 59.78502463510013 94.20545267523644 160.91846252243798 H 0.0 **** 0.06
10564 H 59.819375932892044 94.94581946158846 162.53760259599744 H 0.0 **** 0.06
10565 H 58.29604874899874 94.29216669273353 161.89093824920064 H 0.0 **** 0.06
10566 C 105.82724427308165 54.036861238583924 84.78468846984352 C 0.0 **** -0.24
10567 H 104.73804964372005 54.03437531607999 84.77145893663275 H 0.0 **** 0.06
10568 H 106.18007156394665 54.70725960056383 85.56838364272777 H 0.0 **** 0.06
10569 H 106.20175795108497 54.377725374880356 83.81892589045538 H 0.0 **** 0.06
10570 H 106.19165045122966 53.02728051216732 84.97906986664957 H 0.0 **** 0.06
10571 C 12.655748196088311 132.422218868777 18.278250737570225 C 0.0 **** -0.24
10572 H 12.77461696519601 133.3896365172255 17.79142893850505 H 0.0 **** 0.06
10573 H 11.804851709641397 132.4600398202523 18.958217591053426 H 0.0 **** 0.06
10574 H 13.55945724093256 132.18432984170235 18.840078096489222 H 0.0 **** 0.06
10575 H 12.484066868583263 131.65486929592788 17.523278324233026 H 0.0 **** 0.06
10576 C 35.120023392807326 168.90947101973794 19.440035618326625 C 0.0 **** -0.24
10577 H 36.11732786434396 168.74814400334606 19.029976367619646 H 0.0 **** 0.06
10578 H 35.19291365427736 169.50058720177032 20.35283507573223 H 0.0 **** 0.06
10579 H 34.66127658368521 167.9465631378763 19.66551726235408 H 0.0 **** 0.06
10580 H 34.50900562530671 169.44092096169396 18.710072984578886 H 0.0 **** 0.06
10581 C 124.82798966192817 46.89563466018113 171.8367885667345 C 0.0 **** -0.24
10582 H 124.20916556517 47.602394223524755 172.38924474559244 H 0.0 **** 0.06
10583 H 125.38535870695037 46.27434612590423 172.53837712973703 H 0.0 **** 0.06
10584 H 125.52548247083388 47.44297230008017 171.20281106579952 H 0.0 **** 0.06
10585 H 124.19237617107206 46.26369927700404 171.21696090451894 H 0.0 **** 0.06
10586 C 138.31031009069235 92.12377123071019 42.67938062609663 C 0.0 **** -0.24
10587 H 139.04264942455586 91.41728217605674 42.28721926584811 H 0.0 **** 0.06
10588 H 138.59127510949756 92.41215357076493 43.69256001995248 H 0.0 **** 0.06
10589 H 137.32618202901273 91.65526403571101 42.693911789123135 H 0.0 **** 0.06
10590 H 138.28266790586792 93.00765135495709 42.04341523810318 H 0.0 **** 0.06
10591 C 63.31880034979744 136.19576946129536 113.14809846195243 C 0.0 **** -0.24
10592 H 63.49321217458646 136.1387890181242 114.2233193583074 H 0.0 **** 0.06
10593 H 63.88167245781469 137.03102368963613 112.73219278645709 H 0.0 **** 0.06
10594 H 62.25489636165503 136.34301709222336 112.96040551119745 H 0.0 **** 0.06
10595 H 63.64580555460384 135.26753230725552 112.67804994743057 H 0.0 **** 0.06
10596 C 12.298647161946008 16.652626451809397 25.459811053033746 C 0.0 **** -0.24
10597 H 12.37404610457989 17.523082668973643 26.111347815028523 H 0.0 **** 0.06
10598 H 13.299015310843288 16.28843211122475 25.222517399304593 H 0.0 **** 0.06
10599 H 11.785571601833624 16.93260542007704 24.538972590989317 H 0.0 **** 0.06
10600 H 11.736351401205496 15.867670398086545 25.964619561268847 H 0.0 **** 0.06
10601 C 139.15933689592003 162.41483490241637 114.14945729207926 C 0.0 **** -0.24
10602 H 139.82242235580958 163.2331885710055 114.43208277465507 H 0.0 **** 0.06
10603 H 139.27735290948922 162.20347672422372 113.08533878103029 H 0.0 **** 0.06
10604 H 138.12661446248106 162.69886546965927 114.35162849734081 H 0.0 **** 0.06
10605 H 139.41269914773375 161.5260524341815 114.72679554665899 H 0.0 **** 0.06
10606 C 131.17614139953227 57.54564190721361 96.14364899903609 C 0.0 **** -0.24
10607 H 131.02600189958605 57.701169924448976 97.21218133935838 H 0.0 **** 0.06
10608 H 130.40476815629341 56.8763363055603 95.76242528223145 H 0.0 **** 0.06
10609 H 132.15780661919993 57.102032521460075 95.97588932492238 H 0.0 **** 0.06
10610 H 131.11639862443252 58.50256165570025 95.62488355241214 H 0.0 **** 0.06
10611 C 16.40727255954846 55.88784280386358 37.704664188595586 C 0.0 **** -0.24
10612 H 16.71094273268443 54.86015733260916 37.5040621026821 H 0.0 **** 0.06
10613 H 15.394121830090313 56.04482344932538 37.33451170360996 H 0.0 **** 0.06
10614 H 17.089639412925578 56.57317442917082 37.202402094720014 H 0.0 **** 0.06
10615 H 16.434216590188555 56.070901964364 38.77846609081752 H 0.0 **** 0.06
10616 C 147.0409944725683 171.7150410201148 67.97641092591579 C 0.0 **** -0.24
10617 H 146.02206645926918 171.3730028321629 67.79669239605293 H 0.0 **** 0.06
10618 H 147.67796948122336 171.40942593610103 67.1453245932258 H 0.0 **** 0.06
10619 H 147.4144717808122 171.27489131952424 68.900676098373 H 0.0 **** 0.06
10620 H 147.0505434262895 172.8013896142869 68.06129741613526 H 0.0 **** 0.06
10621 C 5.630331056416871 47.34783774924132 77.88852848790975 C 0.0 **** -0.24
10622 H 5.12229641661871 48.1624802518576 78.40575630543225 H 0.0 **** 0.06
10623 H 6.043797603725643 47.71737353191983 76.94953171689167 H 0.0 **** 0.06
10624 H 4.919557292755435 46.547817836200096 77.68417842165599 H 0.0 **** 0.06
10625 H 6.436308992150231 46.96699175601573 78.51626736536477 H 0.0 **** 0.06
10626 C 84.28397518936026 88.68717002618277 2.1036470902087316 C 0.0 **** -0.24
10627 H 83.78896046237355 89.4904692835144 1.556584067985554 H 0.0 **** 0.06
10628 H 84.89213242823485 88.10011210422785 1.414872833699441 H 0.0 **** 0.06
10629 H 83.53343526162018 88.0445770972796 2.5637311307079713 H 0.0 **** 0.06
10630 H 84.9212780297679 89.11434720851764 2.878255988252725 H 0.0 **** 0.06
10631 C 150.3997468549661 93.75597091230117 75.53957876493034 C 0.0 **** -0.24
10632 H 149.55901721297346 93.33901764151318 76.09344048552995 H 0.0 **** 0.06
10633 H 151.0527195635006 92.94837930641899 75.2080600842467 H 0.0 **** 0.06
10634 H 150.95916322443213 94.43440276030452 76.18380135225956 H 0.0 **** 0.06
10635 H 150.02815270514122 94.30172147455352 74.67164770307423 H 0.0 **** 0.06
10636 C 116.75944026120965 79.10100784618717 54.15640601101963 C 0.0 **** -0.24
10637 H 116.38715065676857 78.21767779955113 54.675763959035464 H 0.0 **** 0.06
10638 H 117.84571024015924 79.04924490580365 54.08743285125041 H 0.0 **** 0.06
10639 H 116.47222528020694 79.99491213472906 54.710113392167116 H 0.0 **** 0.06
10640 H 116.33254108834609 79.1403141833426 53.15504131778248 H 0.0 **** 0.06
10641 C 0.5571746158387683 75.46013025210186 40.73348704237986 C 0.0 **** -0.24
10642 H 0.5459778040036838 75.77892791093484 41.7756563485721 H 0.0 **** 0.06
10643 H 1.4221112801436533 74.82031667706698 40.55823196131709 H 0.0 **** 0.06
10644 H 0.614536478948196 76.33561936451366 40.08736972206245 H 0.0 **** 0.06
10645 H -0.3550650852627797 74.9054319474775 40.513499069590054 H 0.0 **** 0.06
10646 C 58.285470882621894 150.75415746023134 149.00994716016527 C 0.0 **** -0.24
10647 H 58.43248536712633 149.6743595124002 148.99233147935809 H 0.0 **** 0.06
10648 H 57.23462543604933 150.97422536808614 149.19470676929654 H 0.0 **** 0.06
10649 H 58.58276132456939 151.17630469657234 148.05013869949926 H 0.0 **** 0.06
10650 H 58.89343329739256 151.19008591714618 149.802120273957 H 0.0 **** 0.06
10651 C 88.42918506478281 40.06526602498502 43.77763583451667 C 0.0 **** -0.24
10652 H 88.75514401898778 39.2327858536741 44.400838608134165 H 0.0 **** 0.06
10653 H 89.2831692609684 40.70220674668053 43.54715656267368 H 0.0 **** 0.06
10654 H 87.67557155688269 40.644101377930724 44.31087637902681 H 0.0 **** 0.06
10655 H 88.00283391387364 39.67903840756446 42.851035516851766 H 0.0 **** 0.06
10656 C 18.566758372693357 16.10766763085553 19.71717441466174 C 0.0 **** -0.24
10657 H 19.460190845330857 15.917891817213103 19.121590863631752 H 0.0 **** 0.06
10658 H 18.67864294726678 15.643476393402239 20.697147132979183 H 0.0 **** 0.06
10659 H 17.697258280013074 15.685413163506496 19.212546865759066 H 0.0 **** 0.06
10660 H 18.430861075536676 17.181917936004993 19.837084200878337 H 0.0 **** 0.06
10661 C 6.270826859765862 45.36522174372935 166.3536757694232 C 0.0 **** -0.24
10662 H 5.223052134304481 45.63471610481683 166.4824160862533 H 0.0 **** 0.06
10663 H 6.817573243573378 45.584071718979416 167.27151687628967 H 0.0 **** 0.06
10664 H 6.695325081414666 45.94192826347178 165.5315115201286 H 0.0 **** 0.06
10665 H 6.347824411773729 44.30102358104921 166.12902525145375 H 0.0 **** 0.06
10666 C 147.11294770531953 84.63077213316461 93.4102202368772 C 0.0 **** -0.24
10667 H 146.69522336159764 84.44873798128214 94.40009351554431 H 0.0 **** 0.06
10668 H 147.46771724315562 83.68982675490878 92.98724551860948 H 0.0 **** 0.06
10669 H 147.94514287041216 85.33031599314677 93.48955360323129 H 0.0 **** 0.06
10670 H 146.3433467915848 85.05216156789743 92.76316183526956 H 0.0 **** 0.06
10671 C 151.55566610100294 33.23827960775654 29.850850377615203 C 0.0 **** -0.24
10672 H 151.91084499906202 34.161998969144975 29.39288017559217 H 0.0 **** 0.06
10673 H 152.37407287123887 32.52105348895424 29.904889350633013 H 0.0 **** 0.06
10674 H 150.74657523071807 32.82285863277173 29.25049835683788 H 0.0 **** 0.06
10675 H 151.18935953092762 33.44956003151219 30.855560917405057 H 0.0 **** 0.06
10676 C 53.78315750739263 89.63291937664596 102.69606427858088 C 0.0 **** -0.24
10677 H 53.80059711964719 90.57845059104696 102.15407095095338 H 0.0 **** 0.06
10678 H 54.66628518827548 89.5635136262827 103.33202068901497 H 0.0 **** 0.06
10679 H 53.78159190534542 88.80721156802588 101.98597112218971 H 0.0 **** 0.06
10680 H 52.88664014559373 89.5839818336011 103.31299286748958 H 0.0 **** 0.06
10681 C 40.06089715102121 89.38726055377285 155.42619340409976 C 0.0 **** -0.24
10682 H 40.048968243868444 89.20250419889639 154.35147948466985 H 0.0 **** 0.06
10683 H 40.18625735207496 90.4546710032841 155.6096680758681 H 0.0 **** 0.06
10684 H 40.88811108246239 88.84088217008743 155.88005018538868 H 0.0 **** 0.06
10685 H 39.11995818239757 89.05144618153163 155.8627386671445 H 0.0 **** 0.06
10686 C 28.203492643795727 143.42338544248696 113.58347106192656 C 0.0 **** -0.24
10687 H 28.57240180727797 144.44480128571985 113.68148592882625 H 0.0 **** 0.06
10688 H 28.420241819268824 142.86965721821906 114.49588323710839 H 0.0 **** 0.06
10689 H 28.694565829333726 142.93957327488354 112.73881307557241 H 0.0 **** 0.06
10690 H 27.126482485544983 143.44192854101806 113.41486063844877 H 0.0 **** 0.06
10691 C 46.145614922312745 151.74088865864474 168.09370440764158 C 0.0 **** -0.24
10692 H 45.51352500437122 151.13141690589305 168.74065474835925 H 0.0 **** 0.06
10693 H 46.51110845496311 151.13285963664111 167.26641403564042 H 0.0 **** 0.06
10694 H 46.990373000017655 152.12231250749034 168.66660474863613 H 0.0 **** 0.06
10695 H 45.56536356621547 152.576816240573 167.70241341651013 H 0.0 **** 0.06
10696 C 164.0942340308228 76.68260478419433 88.92368691297624 C 0.0 **** -0.24
10697 H 164.864555432699 75.99011121272501 88.58282358991322 H 0.0 **** 0.06
10698 H 163.13403838685312 76.39529668694026 88.495887249934 H 0.0 **** 0.06
10699 H 164.3469433076039 77.69335201775434 88.6025712798519 H 0.0 **** 0.06
10700 H 164.03317234556917 76.65104810695958 90.01091954462919 H 0.0 **** 0.06
10701 C 140.92132306508466 76.79713818585583 36.19360355910766 C 0.0 **** -0.24
10702 H 140.30329112320447 76.10317874800404 36.76189833979063 H 0.0 **** 0.06
10703 H 140.28173198324322 77.45523487539754 35.60444210998753 H 0.0 **** 0.06
10704 H 141.5778306320787 76.23710741039076 35.52762868599763 H 0.0 **** 0.06
10705 H 141.5231135925585 77.39346422447699 36.87984740647937 H 0.0 **** 0.06
10706 C 64.14941985772259 49.7917073117099 49.07472270020777 C 0.0 **** -0.24
10707 H 64.59507602777813 50.670241090620834 48.60717784855518 H 0.0 **** 0.06
10708 H 64.18240756660128 49.900715708588166 50.15879795956066 H 0.0 **** 0.06
10709 H 64.7082070885807 48.90258023251846 48.78083822939553 H 0.0 **** 0.06
10710 H 63.113816737944546 49.69409436402188 48.74962415471795 H 0.0 **** 0.06
10711 C 90.8466543208981 24.861625454370028 8.319894492224492 C 0.0 **** -0.24
10712 H 91.16916703457747 25.158905157128288 9.317706353502246 H 0.0 **** 0.06
10713 H 90.3243192832631 25.693193991949443 7.844914374447924 H 0.0 **** 0.06
10714 H 90.1750916836076 24.00725970308585 8.396274692934213 H 0.0 **** 0.06
10715 H 91.71605962596396 24.589131814853772 7.723703460751196 H 0.0 **** 0.06
10716 C 17.353348860377878 49.436799961878606 23.212602930508382 C 0.0 **** -0.24
10717 H 16.787781638949724 49.11835405099659 24.089106293218123 H 0.0 **** 0.06
10718 H 16.68153270210405 49.91851074389082 22.50268960042345 H 0.0 **** 0.06
10719 H 17.816258785716855 48.56775862288055 22.744986913451697 H 0.0 **** 0.06
10720 H 18.127604995928948 50.141740970024756 23.517269680056813 H 0.0 **** 0.06
10721 C 127.83000399995478 141.7427399550168 43.44473446843739 C 0.0 **** -0.24
10722 H 128.88255258640623 141.51810642811623 43.27154254401984 H 0.0 **** 0.06
10723 H 127.74311678774049 142.49556865605635 44.228105223934676 H 0.0 **** 0.06
10724 H 127.31099981709502 140.83522578145116 43.75258972232777 H 0.0 **** 0.06
10725 H 127.38370421681691 142.12171020941472 42.52452075599584 H 0.0 **** 0.06
10726 C 60.56922549616033 142.52181954865245 43.13240619516266 C 0.0 **** -0.24
10727 H 60.669504632410565 143.35540118751226 42.43800580390496 H 0.0 **** 0.06
10728 H 60.42613299439621 142.9048705257586 44.14260600651389 H 0.0 **** 0.06
10729 H 61.47199976585455 141.9110940350226 43.099116891683096 H 0.0 **** 0.06
10730 H 59.709801659806715 141.9138852485387 42.848630300166974 H 0.0 **** 0.06
10731 C 67.95969682183022 146.07357098361686 39.25603622189432 C 0.0 **** -0.24
10732 H 68.45110468284844 146.7777833900449 38.585348245925616 H 0.0 **** 0.06
10733 H 68.68499373158903 145.34041739730176 39.608963122648944 H 0.0 **** 0.06
10734 H 67.15709743994199 145.5646062940658 38.7227854862646 H 0.0 **** 0.06
10735 H 67.54420681655932 146.61339928101853 40.107670347602834 H 0.0 **** 0.06
10736 C 50.14662255409503 161.1642851038221 141.65076592318053 C 0.0 **** -0.24
10737 H 50.0290885407413 160.57134118324845 140.74435022572283 H 0.0 **** 0.06
10738 H 50.57943858589877 160.5453194840913 142.43659671015155 H 0.0 **** 0.06
10739 H 49.17199423299344 161.53134643281228 141.97304656573567 H 0.0 **** 0.06
10740 H 50.80485394490309 162.0093910069525 141.44990122803836 H 0.0 **** 0.06
10741 C 39.23964860940134 0.1598838638031168 171.21975557495313 C 0.0 **** -0.24
10742 H 38.719447809617265 -0.4047513981993802 170.44564360003548 H 0.0 **** 0.06
10743 H 38.803089616588466 -0.07036726942763494 172.19183883209942 H 0.0 **** 0.06
10744 H 39.14162141523883 1.2269840868144968 171.01999829368373 H 0.0 **** 0.06
10745 H 40.295259876474574 -0.11434496428549323 171.2210312061143 H 0.0 **** 0.06
10746 C 112.32878269352281 98.3965984152374 133.48729780464805 C 0.0 **** -0.24
10747 H 111.28597525050324 98.08281792041208 133.52993126889763 H 0.0 **** 0.06
10748 H 112.43044830557699 99.3827480500932 133.9412396599774 H 0.0 **** 0.06
10749 H 112.65173269764088 98.4410326150516 132.44659462114703 H 0.0 **** 0.06
10750 H 112.94618306108666 97.68076786231035 134.02889041685265 H 0.0 **** 0.06
10751 C 46.66727390697827 83.67414280564212 45.90574188006062 C 0.0 **** -0.24
10752 H 47.33879452178138 83.84152517581587 45.063820635353906 H 0.0 **** 0.06
10753 H 45.6463010106894 83.56426278338866 45.54039149175094 H 0.0 **** 0.06
10754 H 46.72147032083774 84.52349262308948 46.586878302725424 H 0.0 **** 0.06
10755 H 46.96461537790546 82.76706332953356 46.43265086580385 H 0.0 **** 0.06
10756 C 156.60544835631237 119.8467607545511 151.9381036718426 C 0.0 **** -0.24
10757 H 156.68121248358517 119.11809113796136 151.1310878304166 H 0.0 **** 0.06
10758 H 157.49621889474724 119.78997768029677 152.5635456827248 H 0.0 **** 0.06
10759 H 155.72384030198805 119.63096040974875 152.5402627763557 H 0.0 **** 0.06
10760 H 156.52134999445366 120.84881945720639 151.5162280540468 H 0.0 **** 0.06
10761 C 18.3578424601984 118.3775108771421 152.55013196441735 C 0.0 **** -0.24
10762 H 17.60891770919344 119.1638009288896 152.45436734306526 H 0.0 **** 0.06
10763 H 19.190328693606723 118.74066051829854 153.152822760415 H 0.0 **** 0.06
10764 H 18.719760198299582 118.09750546229773 151.5611493124086 H 0.0 **** 0.06
10765 H 17.91167457392367 117.5073760265125 153.03237543232336 H 0.0 **** 0.06
10766 C 65.10895669476899 26.575062482155033 117.7416288138167 C 0.0 **** -0.24
10767 H 65.14722596102253 26.66796172456435 116.65612460482185 H 0.0 **** 0.06
10768 H 64.93694835090312 25.531998223649538 118.01045276310953 H 0.0 **** 0.06
10769 H 64.29631384427802 27.189365496386756 118.1296154044527 H 0.0 **** 0.06
10770 H 66.0538076396662 26.910018050739836 118.1677081476991 H 0.0 **** 0.06
10771 C 78.92056384049576 38.10748221061368 21.470058853091444 C 0.0 **** -0.24
10772 H 77.8616920925019 37.979484848349045 21.694746371360537 H 0.0 **** 0.06
10773 H 79.41229342585834 37.13436691561914 21.468373400945097 H 0.0 **** 0.06
10774 H 79.37758389907867 38.74419100563412 22.228479448496216 H 0.0 **** 0.06
10775 H 79.03052279292206 38.5725706959157 20.490758645914298 H 0.0 **** 0.06
10776 C 79.51105445262809 97.29152282391573 106.77647509371542 C 0.0 **** -0.24
10777 H 79.58227364135858 96.9326179839764 105.74915364413366 H 0.0 **** 0.06
10778 H 79.93558294854407 96.54735675240624 107.4513733364814 H 0.0 **** 0.06
10779 H 78.46353319496707 97.45755371303801 107.03108104022758 H 0.0 **** 0.06
10780 H 80.06077098628421 98.22665315663829 106.87323314389721 H 0.0 **** 0.06
10781 C 67.80309150971615 47.99648401373227 165.58324954002143 C 0.0 **** -0.24
10782 H 67.10501788540988 47.15896761365843 165.60268425237572 H 0.0 **** 0.06
10783 H 68.74383669359784 47.67513003636611 165.13539652181788 H 0.0 **** 0.06
10784 H 67.98378153970366 48.34269240681519 166.60127756942066 H 0.0 **** 0.06
10785 H 67.37856404495876 48.80870993226546 164.99296852108745 H 0.0 **** 0.06
10786 C 148.27620026253234 148.2995041283529 144.7771004301654 C 0.0 **** -0.24
10787 H 148.7294412658975 147.30911355982738 144.75046832260958 H 0.0 **** 0.06
10788 H 148.93523807435272 149.01360950900462 144.28358969540068 H 0.0 **** 0.06
10789 H 148.12308357969158 148.601596869478 145.81365022211892 H 0.0 **** 0.06
10790 H 147.31618924071262 148.2736433154464 144.26121938736884 H 0.0 **** 0.06
10791 C 101.80218848236561 28.915165449293752 7.361359515470468 C 0.0 **** -0.24
10792 H 102.12371812424894 29.71609623972627 8.026171299553226 H 0.0 **** 0.06
10793 H 102.24392548339969 29.0623103159827 6.375533968011695 H 0.0 **** 0.06
10794 H 100.71604503083685 28.925825908178297 7.278275799632581 H 0.0 **** 0.06
10795 H 102.12692292554456 27.955923368442157 7.764915418174041 H 0.0 **** 0.06
10796 C 97.53601555278476 88.04819851608396 116.72952528975313 C 0.0 **** -0.24
10797 H 97.88070123423765 89.08223731334789 116.72298836802702 H 0.0 **** 0.06
10798 H 98.3086449581279 87.41130952529392 117.16128844888854 H 0.0 **** 0.06
10799 H 97.32725943351022 87.72833537521622 115.70915496025407 H 0.0 **** 0.06
10800 H 96.6268605922096 87.97332745656196 117.32686254092874 H 0.0 **** 0.06
10801 C 75.26368016788655 57.66893101359943 43.20317592969798 C 0.0 **** -0.24
10802 H 75.34385487937351 56.688528029367205 43.672535263216645 H 0.0 **** 0.06
10803 H 76.20161641245974 57.90988923358631 42.70241956714571 H 0.0 **** 0.06
10804 H 75.05428638887861 58.421040749193224 43.964472457642586 H 0.0 **** 0.06
10805 H 74.45441145296587 57.6571654669786 42.472334678695006 H 0.0 **** 0.06
10806 C 138.11036861160824 168.6692265041831 70.19287834871591 C 0.0 **** -0.24
10807 H 137.26569862101127 168.18614285542645 70.68431907480065 H 0.0 **** 0.06
10808 H 138.8957800542106 168.86006339315497 70.92379169276086 H 0.0 **** 0.06
10809 H 137.7837497040779 169.61287217947836 69.75521737228928 H 0.0 **** 0.06
10810 H 138.49530129538402 168.01876044152937 69.40769817416401 H 0.0 **** 0.06
10811 C 148.84300915685566 134.13774260289958 64.97610278169675 C 0.0 **** -0.24
10812 H 149.66678887349207 133.45585485117775 65.18730709038094 H 0.0 **** 0.06
10813 H 149.23693785295075 135.07180915152867 64.57654173756767 H 0.0 **** 0.06
10814 H 148.29266952066843 134.3379831281246 65.89592843276388 H 0.0 **** 0.06
10815 H 148.17327095946195 133.68361140297753 64.24530882582049 H 0.0 **** 0.06
10816 C 82.80529655698443 144.1056766595499 104.0828627869638 C 0.0 **** -0.24
10817 H 81.79229196999346 143.75295620565723 104.27722631377077 H 0.0 **** 0.06
10818 H 82.82389299273424 145.19582161289716 104.12190634318125 H 0.0 **** 0.06
10819 H 83.12206229300119 143.77196313140615 103.09502579708712 H 0.0 **** 0.06
10820 H 83.48119463811494 143.70366109239598 104.83758091405434 H 0.0 **** 0.06
10821 C 109.1046168969905 123.82535939779876 119.52593198404807 C 0.0 **** -0.24
10822 H 108.59997278236429 122.86407355087923 119.4261019291813 H 0.0 **** 0.06
10823 H 109.44362177427061 124.16056464425472 118.54556759807187 H 0.0 **** 0.06
10824 H 109.9622078222578 123.7178294228641 120.19067051666471 H 0.0 **** 0.06
10825 H 108.41230909342369 124.55655140065295 119.94123343811245 H 0.0 **** 0.06
10826 C 159.20743867057956 149.58038744384584 88.43837376198631 C 0.0 **** -0.24
10827 H 158.2291603904828 149.99579107273757 88.19998422830788 H 0.0 **** 0.06
10828 H 159.9790423421037 150.32075237409555 88.22694355526718 H 0.0 **** 0.06
10829 H 159.38123304695102 148.69060810565276 87.8329495811041 H 0.0 **** 0.06
10830 H 159.24047932018885 149.3129929231303 89.49461742454031 H 0.0 **** 0.06
10831 C 110.88923846428145 118.61526781532115 154.01668422101162 C 0.0 **** -0.24
10832 H 110.33485607514262 119.29550700375259 153.3706416685877 H 0.0 **** 0.06
10833 H 111.5498853616819 117.99503526370663 153.41113369760558 H 0.0 **** 0.06
10834 H 110.19059270350238 117.97982452713708 154.56019879405648 H 0.0 **** 0.06
10835 H 111.48220600845161 119.19264077065196 154.72697795300516 H 0.0 **** 0.06
10836 C 115.44625245137536 45.65897241965352 164.57231703397406 C 0.0 **** -0.24
10837 H 116.15922793796636 46.48311576914192 164.5891060890982 H 0.0 **** 0.06
10838 H 115.59334603411187 45.03284958880293 165.45275833486463 H 0.0 **** 0.06
10839 H 115.60188105714832 45.06329881303462 163.67274442358084 H 0.0 **** 0.06
10840 H 114.4316251866349 46.056937900119635 164.5737894099356 H 0.0 **** 0.06
10841 C 117.49505967661227 23.166380196843818 60.010206227245874 C 0.0 **** -0.24
10842 H 116.99125570721824 23.692003327994257 59.19910508305418 H 0.0 **** 0.06
10843 H 117.320974000603 22.09511089710253 59.912551570835234 H 0.0 **** 0.06
10844 H 117.10332197245478 23.51320184036564 60.96679784520026 H 0.0 **** 0.06
10845 H 118.565922426605 23.366778140843422 59.96137127111439 H 0.0 **** 0.06
10846 C 121.54020693073576 3.9980503113860806 155.58313845753128 C 0.0 **** -0.24
10847 H 120.95798214549194 3.6927304850396325 156.452559694915 H 0.0 **** 0.06
10848 H 120.87987956689017 4.098742982323429 154.72065831410646 H 0.0 **** 0.06
10849 H 122.30105784450254 3.246449117779072 155.3729083102872 H 0.0 **** 0.06
10850 H 122.0211731854229 4.955456859923821 155.7866952891132 H 0.0 **** 0.06
10851 C 123.1256831689679 7.655246987328894 167.44827444327427 C 0.0 **** -0.24
10852 H 123.89482353938533 6.973429606864983 167.81156268209187 H 0.0 **** 0.06
10853 H 122.2770398469037 7.643392175841747 168.13274736527808 H 0.0 **** 0.06
10854 H 122.79934915404348 7.338471609032055 166.45745424346467 H 0.0 **** 0.06
10855 H 123.53310808186939 8.665047881740797 167.3910878797165 H 0.0 **** 0.06
10856 C 13.429042105376844 79.8836866591584 141.671848435232 C 0.0 **** -0.24
10857 H 13.11228618198814 79.85910782982285 142.7142172440189 H 0.0 **** 0.06
10858 H 12.687948744066759 79.37706266961612 141.05429445011487 H 0.0 **** 0.06
10859 H 14.39078590165596 79.37986199304464 141.57267295549804 H 0.0 **** 0.06
10860 H 13.527363807815199 80.91974960379667 141.34633710041453 H 0.0 **** 0.06
10861 C 56.11629548473519 123.39775788851301 17.529147496407177 C 0.0 **** -0.24
10862 H 56.60057894369028 123.19422972873002 18.483324082382467 H 0.0 **** 0.06
10863 H 56.75160658499546 123.04325293000187 16.717112865481226 H 0.0 **** 0.06
10864 H 55.95712582407559 124.47144110967935 17.42365542543098 H 0.0 **** 0.06
10865 H 55.15628962991508 122.88213520004314 17.4908172151803 H 0.0 **** 0.06
10866 C 36.32237862006957 61.319556708091255 167.51881026108168 C 0.0 **** -0.24
10867 H 37.135554466331854 61.99223445128928 167.7924375557659 H 0.0 **** 0.06
10868 H 36.182656624620336 61.34073431954633 166.43805846035124 H 0.0 **** 0.06
10869 H 35.404406594298564 61.64230635771338 168.01022374773578 H 0.0 **** 0.06
10870 H 36.56813347149486 60.30627470214455 167.83517601441747 H 0.0 **** 0.06
10871 C 12.846602560234203 63.10576403094707 163.09951882081884 C 0.0 **** -0.24
10872 H 11.952969352795925 63.433996919563896 162.56714292712638 H 0.0 **** 0.06
10873 H 13.579682778605175 62.73494059702159 162.38213426569075 H 0.0 **** 0.06
10874 H 12.582198999460843 62.30841202520796 163.79504937976878 H 0.0 **** 0.06
10875 H 13.26855405580445 63.94485347695249 163.6510575519311 H 0.0 **** 0.06
10876 C 17.282311730581775 141.31341851639988 112.89428086103285 C 0.0 **** -0.24
10877 H 18.06822032921724 140.58064930699072 113.07578328474452 H 0.0 **** 0.06
10878 H 17.605938467207487 142.29013821856717 113.25556547957109 H 0.0 **** 0.06
10879 H 16.37666623240697 141.01185248338956 113.42037433088191 H 0.0 **** 0.06
10880 H 17.078700116286598 141.37007636632586 111.8253265299031 H 0.0 **** 0.06
10881 C 166.56913932011705 11.919341558675058 150.0740034985979 C 0.0 **** -0.24
10882 H 166.67840753400486 11.21338261944311 149.25041766046093 H 0.0 **** 0.06
10883 H 166.15908537389927 11.403033482064728 150.94246244386107 H 0.0 **** 0.06
10884 H 165.8943233643721 12.722476178776077 149.7765385177948 H 0.0 **** 0.06
10885 H 167.5433852197956 12.33812058059874 150.32557701646073 H 0.0 **** 0.06
10886 C 37.714266980078875 128.18090484470576 0.38301208990836244 C 0.0 **** -0.24
10887 H 37.71401547636219 127.44328825573805 1.1860761684470802 H 0.0 **** 0.06
10888 H 38.61607025954916 128.06305577918687 -0.21768302766110992 H 0.0 **** 0.06
10889 H 37.691454184753354 129.18269995052987 0.8123177340885235 H 0.0 **** 0.06
10890 H 36.836155955573744 128.03385672229595 -0.24564764168355424 H 0.0 **** 0.06
10891 C 9.922152404800556 32.70989398961569 140.2080135011201 C 0.0 **** -0.24
10892 H 9.463778885138652 33.419455751399425 140.89684585148984 H 0.0 **** 0.06
10893 H 10.672731602256476 33.221677294665824 139.60583753299912 H 0.0 **** 0.06
10894 H 9.15695434883719 32.289087050035164 139.5556151233348 H 0.0 **** 0.06
10895 H 10.396437246613687 31.908293329009524 140.77554455456362 H 0.0 **** 0.06
10896 C 1.3205790001285465 151.48373656420557 83.85073995091305 C 0.0 **** -0.24
10897 H 0.7807997941426663 150.71553665226364 83.29820990447409 H 0.0 **** 0.06
10898 H 2.28210141260989 151.08738507962283 84.17745594878504 H 0.0 **** 0.06
10899 H 0.7360517689664334 151.78473790032254 84.71967278767164 H 0.0 **** 0.06
10900 H 1.4840709651978443 152.3477267482998 83.20647872349316 H 0.0 **** 0.06
10901 C 84.59154466014832 4.210323701606512 110.30042397003174 C 0.0 **** -0.24
10902 H 85.33759038337723 3.474610754213927 110.00169098744459 H 0.0 **** 0.06
10903 H 85.02901453214497 4.899239463258709 111.02281608100381 H 0.0 **** 0.06
10904 H 83.73992270785163 3.701288441245481 110.75246971595104 H 0.0 **** 0.06
10905 H 84.25818674947516 4.7660269526117816 109.42275965800383 H 0.0 **** 0.06
10906 C 107.45221654169342 171.81533873801837 73.22011591912998 C 0.0 **** -0.24
10907 H 106.4069275435009 171.69454974783594 73.5070186118002 H 0.0 **** 0.06
10908 H 107.7505801907443 172.85445932159848 73.36481483477485 H 0.0 **** 0.06
10909 H 107.57446737899494 171.5441641303309 72.17093610505977 H 0.0 **** 0.06
10910 H 108.07459919353045 171.1689877599896 73.8380070097443 H 0.0 **** 0.06
10911 C 139.02508495591772 7.907610578218055 80.62201900538415 C 0.0 **** -0.24
10912 H 139.8820249065266 7.237318001814629 80.69765631885673 H 0.0 **** 0.06
10913 H 138.66884490935638 7.926178228620358 79.59125836306207 H 0.0 **** 0.06
10914 H 139.32286144412308 8.912722559231042 80.9213219704661 H 0.0 **** 0.06
10915 H 138.22853968911073 7.554111847457193 81.2763365549145 H 0.0 **** 0.06
10916 C 29.93028851512412 19.22837422508485 45.90361068966655 C 0.0 **** -0.24
10917 H 29.124029574406535 19.27112070622036 46.63579539336217 H 0.0 **** 0.06
10918 H 29.65501886094009 19.81420403262632 45.02591981420949 H 0.0 **** 0.06
10919 H 30.10065594402687 18.19282150387346 45.61039291163735 H 0.0 **** 0.06
10920 H 30.841038082434068 19.63667281211403 46.34204732451843 H 0.0 **** 0.06
10921 C 24.518942944032744 141.971280889646 142.85981786421004 C 0.0 **** -0.24
10922 H 24.72450589850419 141.26963183670458 142.05128606610685 H 0.0 **** 0.06
10923 H 25.458371833905233 142.37535464749567 143.2379302321458 H 0.0 **** 0.06
10924 H 23.994640609246233 141.45543403466644 143.66364200022315 H 0.0 **** 0.06
10925 H 23.897261357959167 142.7853134822019 142.48450441956095 H 0.0 **** 0.06
10926 C 53.628965406649854 91.17961181600185 37.897959797882066 C 0.0 **** -0.24
10927 H 54.62350651859026 91.59995951308437 38.04892664523126 H 0.0 **** 0.06
10928 H 53.01527880827456 91.3725407360024 38.777704287436805 H 0.0 **** 0.06
10929 H 53.71001653323418 90.10321123663333 37.74064563964255 H 0.0 **** 0.06
10930 H 53.167933940566115 91.64093806482686 37.024498138642045 H 0.0 **** 0.06
10931 C 49.61024889316258 10.509789578506059 165.04630720684895 C 0.0 **** -0.24
10932 H 48.64855933824413 10.984836956885374 165.23463222929175 H 0.0 **** 0.06
10933 H 50.2403840917318 10.599361848149016 165.93162389976058 H 0.0 **** 0.06
10934 H 50.09812319748863 10.997889446967662 164.20273897598915 H 0.0 **** 0.06
10935 H 49.45532781858921 9.455280744159154 164.81531630076236 H 0.0 **** 0.06
10936 C 42.70030695488231 4.230277344238573 153.4537817918379 C 0.0 **** -0.24
10937 H 41.73244259632466 4.206581151369363 153.9540069845393 H 0.0 **** 0.06
10938 H 43.36172460382434 4.9219585647868485 153.97649585939396 H 0.0 **** 0.06
10939 H 42.56787543482568 4.561771127079226 152.42354251406277 H 0.0 **** 0.06
10940 H 43.13705419755837 3.231981740135808 153.46132488257211 H 0.0 **** 0.06
10941 C 73.5912985455139 24.13584636154647 116.59040091266874 C 0.0 **** -0.24
10942 H 72.78207889585148 23.474098698426786 116.90107084421535 H 0.0 **** 0.06
10943 H 73.56011036752356 25.050287576181205 117.18420542122607 H 0.0 **** 0.06
10944 H 73.47408385851884 24.38249165841802 115.53522462597195 H 0.0 **** 0.06
10945 H 74.54763239149327 23.63537919418593 116.74254024631031 H 0.0 **** 0.06
10946 C 80.53030549087441 62.741414215305184 24.644733152817565 C 0.0 **** -0.24
10947 H 80.47540280390001 63.74807280413357 25.058746868291536 H 0.0 **** 0.06
10948 H 79.6788311331805 62.57429453943706 23.984434250561407 H 0.0 **** 0.06
10949 H 80.5095601744556 62.01369648581199 25.45626733983397 H 0.0 **** 0.06
10950 H 81.45630884402124 62.63109187214289 24.081065755112775 H 0.0 **** 0.06
10951 C 106.372769749231 53.449682544149894 10.604586905537715 C 0.0 **** -0.24
10952 H 106.14388185489085 53.94617648003745 9.661382632637647 H 0.0 **** 0.06
10953 H 106.08103093886152 54.09478495697924 11.434120849757214 H 0.0 **** 0.06
10954 H 107.44333724421605 53.24918998806217 10.658440314435474 H 0.0 **** 0.06
10955 H 105.82392393911047 52.51074473792089 10.662640370540473 H 0.0 **** 0.06
10956 C 126.21910583123821 49.85617840003674 138.09318113716506 C 0.0 **** -0.24
10957 H 125.42104852109767 50.595232257154436 138.02962734883528 H 0.0 **** 0.06
10958 H 127.05033073540216 50.162775968093186 137.45809824526924 H 0.0 **** 0.06
10959 H 125.84573763165656 48.88749489367899 137.7615569122359 H 0.0 **** 0.06
10960 H 126.56030120398805 49.77866016565319 139.12621834244734 H 0.0 **** 0.06
10961 C 11.423886886611207 84.82515472266562 117.8577217454135 C 0.0 **** -0.24
10962 H 11.399857064978463 85.5533858501546 118.66854181418563 H 0.0 **** 0.06
10963 H 10.729906109803991 85.13032014796227 117.07475117087955 H 0.0 **** 0.06
10964 H 11.13313098373495 83.84635457791308 118.23987417744218 H 0.0 **** 0.06
10965 H 12.432886544617553 84.76999630980163 117.44934150725601 H 0.0 **** 0.06
10966 C 111.91522015315854 143.4087712435792 68.58259320942943 C 0.0 **** -0.24
10967 H 112.17765693633874 144.34632334348802 68.09265528008939 H 0.0 **** 0.06
10968 H 112.53029575219978 142.6043218424353 68.18002851018457 H 0.0 **** 0.06
10969 H 110.8635726054494 143.18753529037468 68.40453357945324 H 0.0 **** 0.06
10970 H 112.09136660017987 143.49907510950885 69.65465329962399 H 0.0 **** 0.06
10971 C 45.238318073613016 137.49322226565482 60.43296797260069 C 0.0 **** -0.24
10972 H 45.40239430257046 136.63670182705386 59.77872495370946 H 0.0 **** 0.06
10973 H 45.11995705429217 137.1474273231206 61.45965716601745 H 0.0 **** 0.06
10974 H 44.338168936462665 138.02193789065404 60.120448395098265 H 0.0 **** 0.06
10975 H 46.09466456587896 138.1655891292088 60.37213460132671 H 0.0 **** 0.06
10976 C 31.876943006631336 146.6310565387914 130.9329794657041 C 0.0 **** -0.24
10977 H 32.168659968994206 146.16374196036605 131.872903106836 H 0.0 **** 0.06
10978 H 30.80316760995899 146.5119863560892 130.7868018808665 H 0.0 **** 0.06
10979 H 32.41090719776048 146.15510231002634 130.1098670618451 H 0.0 **** 0.06
10980 H 32.12436837997896 147.6917557317633 130.96098059575306 H 0.0 **** 0.06
10981 C 26.47057267745396 143.00549714121357 23.575349819812402 C 0.0 **** -0.24
10982 H 26.55800144372492 142.35943987286376 24.449160105370197 H 0.0 **** 0.06
10983 H 25.887891474451976 143.88981861031257 23.835362067958187 H 0.0 **** 0.06
10984 H 25.97217464970521 142.46477407636405 22.771902181174795 H 0.0 **** 0.06
10985 H 27.465057593659907 143.30899254909315 23.248173299723334 H 0.0 **** 0.06
10986 C 39.87849780439946 148.34866676313217 48.23390118005091 C 0.0 **** -0.24
10987 H 39.935192987569124 148.20993934915964 47.15434778162785 H 0.0 **** 0.06
10988 H 39.708572974325264 149.4024350923372 48.4557323251218 H 0.0 **** 0.06
10989 H 40.81388366798208 148.02761223293214 48.691859092932134 H 0.0 **** 0.06
10990 H 39.05570557817927 147.75561544040067 48.63281628190998 H 0.0 **** 0.06
10991 C 139.90921069487402 79.39845878769361 125.70712553672007 C 0.0 **** -0.24
10992 H 139.7000466534845 79.06686633076269 126.72411129248243 H 0.0 **** 0.06
10993 H 140.77466687153955 80.0612427706337 125.71127151804748 H 0.0 **** 0.06
10994 H 139.04398542789116 79.93281322386336 125.31467839293884 H 0.0 **** 0.06
10995 H 140.11691851775794 78.53297218103533 125.07773727369172 H 0.0 **** 0.06
10996 C 129.9632339917773 157.7194924339019 94.92050158389202 C 0.0 **** -0.24
10997 H 130.26921435853035 158.67416382361915 94.49287940055487 H 0.0 **** 0.06
10998 H 130.1552824366365 157.7240523270337 95.99365991346869 H 0.0 **** 0.06
10999 H 130.530884008063 156.91512108131073 94.45261765316556 H 0.0 **** 0.06
11000 H 128.8997401846742 157.56609409918843 94.74140379791112 H 0.0 **** 0.06
11001 C 99.9386860231416 73.03060900140616 161.71168421507164 C 0.0 **** -0.24
11002 H 100.90697818775192 73.51273848430367 161.58210568626336 H 0.0 **** 0.06
11003 H 99.54486964444828 73.2674971386624 162.70083329271097 H 0.0 **** 0.06
11004 H 100.05480722730627 71.95133876056735 161.61546684022795 H 0.0 **** 0.06
11005 H 99.24764770193059 73.39112020841657 160.94919033607354 H 0.0 **** 0.06
11006 C 147.05699083927576 69.8314459166341 14.46430093417446 C 0.0 **** -0.24
11007 H 146.0940178943989 69.67265207555181 13.977887697107526 H 0.0 **** 0.06
11008 H 147.13653806415766 70.87199638019536 14.780180939529707 H 0.0 **** 0.06
11009 H 147.85873785271832 69.60132575750691 13.762996001006925 H 0.0 **** 0.06
11010 H 147.13570683020797 69.17972508269543 15.334085915946318 H 0.0 **** 0.06
11011 C 28.749147130836093 162.87574236332753 117.68890655786208 C 0.0 **** -0.24
11012 H 29.671366415095036 162.36301085835748 117.41214450665115 H 0.0 **** 0.06
11013 H 28.222841676140348 162.29357473949855 118.44497374788304 H 0.0 **** 0.06
11014 H 28.117334820109136 162.9851099779884 116.80775725207826 H 0.0 **** 0.06
11015 H 28.988602093153375 163.86087274849143 118.08870352865713 H 0.0 **** 0.06
11016 C 163.9818297991826 80.59583479035564 71.88913363472209 C 0.0 **** -0.24
11017 H 163.811679740969 80.13757969237368 70.91447552525064 H 0.0 **** 0.06
11018 H 165.05346112163497 80.72278074442794 72.0476305153648 H 0.0 **** 0.06
11019 H 163.57185172218996 79.95365862095845 72.66845444208016 H 0.0 **** 0.06
11020 H 163.49147699223528 81.56833617611551 71.92285815392638 H 0.0 **** 0.06
11021 C 64.15721117879991 116.69697569585466 40.34072310565361 C 0.0 **** -0.24
11022 H 64.15140443776951 117.13326910156081 39.341738352015795 H 0.0 **** 0.06
11023 H 63.52232721974218 115.81114718398496 40.35338747677582 H 0.0 **** 0.06
11024 H 63.77839910206279 117.42685579182674 41.056889754842814 H 0.0 **** 0.06
11025 H 65.17595154784661 116.41947169502754 40.610287120934686 H 0.0 **** 0.06
11026 C 126.95367267715255 79.82226874952636 167.03780099539352 C 0.0 **** -0.24
11027 H 127.63185263083386 80.09745702078055 166.23005688310374 H 0.0 **** 0.06
11028 H 125.95314662072408 80.1910930873037 166.8129023715229 H 0.0 **** 0.06
11029 H 127.30261499699171 80.26233812402313 167.97146386892902 H 0.0 **** 0.06
11030 H 126.92783086392802 78.73657510562501 167.13436555740932 H 0.0 **** 0.06
11031 C 130.18549943064306 90.60603241377345 164.98538167077146 C 0.0 **** -0.24
11032 H 129.80149284749075 91.57941918991878 165.29097342372265 H 0.0 **** 0.06
11033 H 130.12328997966677 89.91223696430785 165.82428337418392 H 0.0 **** 0.06
11034 H 131.22430313986155 90.70741641694639 164.67193261625698 H 0.0 **** 0.06
11035 H 129.59079997136433 90.22617547533235 164.15487554002632 H 0.0 **** 0.06
11036 C 72.64451071976146 170.06591448498241 76.2113475713104 C 0.0 **** -0.24
11037 H 73.69038961000598 169.99633928864375 76.51101711474482 H 0.0 **** 0.06
11038 H 72.03863388323012 170.3509281588438 77.07153048985978 H 0.0 **** 0.06
11039 H 72.30921404342236 169.099100260289 75.83539466238943 H 0.0 **** 0.06
11040 H 72.5405205944507 170.81600624239064 75.42836446168383 H 0.0 **** 0.06
11041 C 119.30947027655145 41.41371196627654 39.83228642470755 C 0.0 **** -0.24
11042 H 119.09128663024515 41.419450755331866 40.90076673846835 H 0.0 **** 0.06
11043 H 120.28710523508695 41.863273832701395 39.659141415488875 H 0.0 **** 0.06
11044 H 118.54635546256992 41.98621691295682 39.30323717869547 H 0.0 **** 0.06
11045 H 119.31035883718525 40.386235830826536 39.467480715053284 H 0.0 **** 0.06
11046 C 2.5608810051751902 13.685798776116599 81.56925772484684 C 0.0 **** -0.24
11047 H 2.5028847515889083 14.77107566574125 81.6552734559786 H 0.0 **** 0.06
11048 H 1.931815341532456 13.351920253485105 80.74489817302926 H 0.0 **** 0.06
11049 H 2.2167008357648115 13.22952590287889 82.4977878972174 H 0.0 **** 0.06
11050 H 3.5937544375937307 13.391453617325737 81.38234706840721 H 0.0 **** 0.06
11051 C 129.21468931277647 102.44425257505122 16.380798641875046 C 0.0 **** -0.24
11052 H 129.3176732833385 103.51656156464176 16.21432065691517 H 0.0 **** 0.06
11053 H 129.30432159827862 102.2326355083438 17.44735314980543 H 0.0 **** 0.06
11054 H 129.9993658100111 101.91650820527263 15.838391166611487 H 0.0 **** 0.06
11055 H 128.2404029307774 102.1129064424608 16.02467800464047 H 0.0 **** 0.06
11056 C 169.09332934703806 56.502952238544594 112.92242721798735 C 0.0 **** -0.24
11057 H 169.1889811611669 55.51065502476965 112.48237252046141 H 0.0 **** 0.06
11058 H 169.87370333466555 57.153977759903 112.52731151566249 H 0.0 **** 0.06
11059 H 169.1928753735941 56.431790724648636 114.00513853148956 H 0.0 **** 0.06
11060 H 168.1150040373302 56.91688425735845 112.67447135782217 H 0.0 **** 0.06
11061 C 161.41012270764105 15.376618539837892 162.473483047488 C 0.0 **** -0.24
11062 H 162.17603417636792 15.561453407844226 161.72110425731344 H 0.0 **** 0.06
11063 H 161.82670366320485 14.761643903464005 163.27297586662797 H 0.0 **** 0.06
11064 H 160.56878636527853 14.856009645139693 162.0161060454328 H 0.0 **** 0.06
11065 H 161.0689317353931 16.325925863107045 162.88572629577283 H 0.0 **** 0.06
11066 C 130.00390672874792 87.35303419074873 81.90519165895493 C 0.0 **** -0.24
11067 H 130.90755591081268 87.95768841925175 81.98764546079033 H 0.0 **** 0.06
11068 H 130.15075370180224 86.40803966185969 82.4282208100452 H 0.0 **** 0.06
11069 H 129.79320225624068 87.15764254377237 80.85396385202914 H 0.0 **** 0.06
11070 H 129.1662174802748 87.88934783022324 82.35044504104452 H 0.0 **** 0.06
11071 C 61.506154707663995 37.6524653001855 82.35160510265814 C 0.0 **** -0.24
11072 H 61.0443459460123 37.96804271405847 83.28694607675652 H 0.0 **** 0.06
11073 H 60.739594931434965 37.549617922316145 81.5843589383822 H 0.0 **** 0.06
11074 H 62.00445233822779 36.693642299940734 82.49952450723265 H 0.0 **** 0.06
11075 H 62.2372590861533 38.39738107321895 82.03794596398211 H 0.0 **** 0.06
11076 C 83.35068065254089 94.43135631218917 141.95986676413966 C 0.0 **** -0.24
11077 H 83.89645844253955 94.37813372349109 142.90152972209006 H 0.0 **** 0.06
11078 H 83.597087153909 95.36332527810322 141.45002571156124 H 0.0 **** 0.06
11079 H 82.27955044124445 94.39889555070675 142.1589585818528 H 0.0 **** 0.06
11080 H 83.62993088162607 93.58730902596568 141.32990037654542 H 0.0 **** 0.06
11081 C 68.05565792308118 60.0643408242006 166.96907463734408 C 0.0 **** -0.24
11082 H 68.17197005343627 58.987798234307775 167.0902055531287 H 0.0 **** 0.06
11083 H 68.37450473390919 60.355010029405065 165.96743880214103 H 0.0 **** 0.06
11084 H 68.66614377575087 60.5816567536001 167.70915533282482 H 0.0 **** 0.06
11085 H 67.00865142580903 60.334662749846615 167.10967927141337 H 0.0 **** 0.06
11086 C 154.45711337327535 3.660701184927177 48.49478234751949 C 0.0 **** -0.24
11087 H 153.39173282250673 3.5788673266138176 48.71327199235121 H 0.0 **** 0.06
11088 H 154.75515741316175 2.8460968731488947 47.83510383785129 H 0.0 **** 0.06
11089 H 155.0235813071947 3.6025799694478167 49.42397779361269 H 0.0 **** 0.06
11090 H 154.65577444220975 4.615592478756781 48.00690570806363 H 0.0 **** 0.06
11091 C 163.9833105395924 140.08122060693228 65.43544969422764 C 0.0 **** -0.24
11092 H 163.76687020914233 140.77728269628824 64.6259156944485 H 0.0 **** 0.06
11093 H 164.5632181263646 139.24330041787152 65.04850508148174 H 0.0 **** 0.06
11094 H 163.04835780306365 139.71318581248426 65.85758941845748 H 0.0 **** 0.06
11095 H 164.55541206556455 140.5918499667752 66.21006810682253 H 0.0 **** 0.06
11096 C 112.61844402243071 84.35878664734366 24.238804571342882 C 0.0 **** -0.24
11097 H 111.74540025410622 84.66945880414465 24.81366595021842 H 0.0 **** 0.06
11098 H 113.51804567876763 84.77791322555265 24.691092085878495 H 0.0 **** 0.06
11099 H 112.52518854635449 84.71797713555554 23.214841807549817 H 0.0 **** 0.06
11100 H 112.6852240893655 83.27076811350815 24.238273848060146 H 0.0 **** 0.06
11101 C 92.39845301003422 147.17655263201078 159.34862181277097 C 0.0 **** -0.24
11102 H 93.4171542926403 147.5585134519006 159.28234351966637 H 0.0 **** 0.06
11103 H 92.23861115105845 146.43481657782488 158.56582848001676 H 0.0 **** 0.06
11104 H 91.69430348056491 147.99822731457093 159.22113723807257 H 0.0 **** 0.06
11105 H 92.24635915766956 146.71460580286657 160.32410362800277 H 0.0 **** 0.06
11106 C 156.30459631206404 9.641321177108772 155.65379932799203 C 0.0 **** -0.24
11107 H 157.17607622603714 9.055163107249456 155.9461855009696 H 0.0 **** 0.06
11108 H 156.56098203665547 10.700274394870853 155.6550643634402 H 0.0 **** 0.06
11109 H 155.4942012117033 9.462082960822059 156.36013608839335 H 0.0 **** 0.06
11110 H 155.98694514368842 9.343646997811334 154.65393832023224 H 0.0 **** 0.06
11111 C 171.8558491218026 142.829801028 151.17902641292983 C 0.0 **** -0.24
11112 H 170.80235007272717 142.90743101234983 151.4508582929213 H 0.0 **** 0.06
11113 H 171.9600086994426 142.930039650002 150.09824604177936 H 0.0 **** 0.06
11114 H 172.24167505934992 141.8605476566999 151.4946344421727 H 0.0 **** 0.06
11115 H 172.41746467324765 143.62244456080296 151.67431967220344 H 0.0 **** 0.06
11116 C 34.58163227510292 95.95184120910233 162.16137764663742 C 0.0 **** -0.24
11117 H 33.63801669422031 96.44253924733698 162.39967211229475 H 0.0 **** 0.06
11118 H 35.34259257741036 96.70623914617039 161.96211312457476 H 0.0 **** 0.06
11119 H 34.451730636136915 95.32404228434129 161.28042746036198 H 0.0 **** 0.06
11120 H 34.892546472393065 95.33579925865263 163.00461180009427 H 0.0 **** 0.06
11121 C 29.22004502339911 125.1922375942826 37.24749982850709 C 0.0 **** -0.24
11122 H 28.833192127718405 126.1849405809887 37.47890168224414 H 0.0 **** 0.06
11123 H 28.38998781881969 124.49593478456566 37.13282817537059 H 0.0 **** 0.06
11124 H 29.86691900819045 124.85698729041016 38.05837495680181 H 0.0 **** 0.06
11125 H 29.791470723845038 125.23392717774473 36.319811920877044 H 0.0 **** 0.06
11126 C 72.22751200205002 45.505491819346474 75.29909284252668 C 0.0 **** -0.24
11127 H 72.67734342819364 46.42301839397663 75.67751038755755 H 0.0 **** 0.06
11128 H 72.67752864569454 44.64746827045656 75.79868047320792 H 0.0 **** 0.06
11129 H 72.39887306295219 45.432625613186474 74.22459197272148 H 0.0 **** 0.06
11130 H 71.15513010157116 45.518663986848765 75.49482160705827 H 0.0 **** 0.06
11131 C 60.05278259188677 125.43866650741373 108.00464792980256 C 0.0 **** -0.24
11132 H 59.23256807037859 125.09323002812053 108.63470506131546 H 0.0 **** 0.06
11133 H 61.002326067318535 125.15067083813909 108.45699281829368 H 0.0 **** 0.06
11134 H 60.00752420936635 126.52362908425843 107.91329118448616 H 0.0 **** 0.06
11135 H 59.96811414346513 124.98599143606393 107.01764404572711 H 0.0 **** 0.06
11136 C 8.722019702045564 112.52551843574173 152.63601316154055 C 0.0 **** -0.24
11137 H 8.696885863765544 113.05654538099651 153.58747143849595 H 0.0 **** 0.06
11138 H 7.85789515723058 111.86453494622657 152.56527564004045 H 0.0 **** 0.06
11139 H 9.636649504220735 111.93522617898026 152.57472221879783 H 0.0 **** 0.06
11140 H 8.698263463153644 113.24503624623998 151.81750906884002 H 0.0 **** 0.06
11141 C 3.540590404705597 68.91432101497168 162.03804243187045 C 0.0 **** -0.24
11142 H 3.8799225676664832 68.28884718859672 161.21261748119204 H 0.0 **** 0.06
11143 H 3.355266341728452 68.29088389555874 162.9130380602858 H 0.0 **** 0.06
11144 H 2.6208708242948546 69.42445495415096 161.75224804064936 H 0.0 **** 0.06
11145 H 4.307040878872726 69.65278421698142 162.2731018984784 H 0.0 **** 0.06
11146 C 109.46044186697662 23.596793266297148 61.677494460169896 C 0.0 **** -0.24
11147 H 108.37278139695113 23.593035513949438 61.74365900172732 H 0.0 **** 0.06
11148 H 109.79372504594593 22.713089880715252 61.132265272623 H 0.0 **** 0.06
11149 H 109.8856834844263 23.586255380224088 62.681564543668145 H 0.0 **** 0.06
11150 H 109.78956002348076 24.49379770955781 61.152386405749425 H 0.0 **** 0.06
11151 C 78.69695840853251 88.63745755517492 122.71385701294079 C 0.0 **** -0.24
11152 H 78.77764894534448 87.55475503657266 122.614385942783 H 0.0 **** 0.06
11153 H 79.69533721580066 89.07270627433097 122.76309631957065 H 0.0 **** 0.06
11154 H 78.1487956034324 88.87902526245657 123.62428809561521 H 0.0 **** 0.06
11155 H 78.16681784537082 89.04220171832158 121.8511859529871 H 0.0 **** 0.06
11156 C 125.62492178335322 118.66017063979831 148.48831270509316 C 0.0 **** -0.24
11157 H 125.55778964304105 117.6513102238128 148.89799084557143 H 0.0 **** 0.06
11158 H 125.42235624249645 118.62956719060546 147.41727122904615 H 0.0 **** 0.06
11159 H 126.62591993876742 119.05464094051658 148.6575640211554 H 0.0 **** 0.06
11160 H 124.89252627471805 119.30041396601365 148.97892911016703 H 0.0 **** 0.06
11161 C 58.477242277419236 98.31896860825847 167.50893690009312 C 0.0 **** -0.24
11162 H 59.087122592406814 98.13270469501708 168.39229634531435 H 0.0 **** 0.06
11163 H 59.12286756069241 98.41581958956147 166.63583777769242 H 0.0 **** 0.06
11164 H 57.91113799709797 99.2405514212916 167.64581370353665 H 0.0 **** 0.06
11165 H 57.78849915764039 97.48753279154596 167.36163258353102 H 0.0 **** 0.06
11166 C 133.82897585184475 169.8881541190123 19.350263538387253 C 0.0 **** -0.24
11167 H 133.69887488181672 169.9038092625987 20.43181233804603 H 0.0 **** 0.06
11168 H 133.72145827993592 168.86590233215844 18.986640849391392 H 0.0 **** 0.06
11169 H 134.82174009531633 170.26077703806067 19.09841736471253 H 0.0 **** 0.06
11170 H 133.0736094550869 170.5211653327495 18.884025819514306 H 0.0 **** 0.06
11171 C 159.2278193388701 38.97005445118327 48.487351154568444 C 0.0 **** -0.24
11172 H 159.31733093040128 37.996963984271616 48.96981129960605 H 0.0 **** 0.06
11173 H 160.2001821548698 39.27075881725085 48.094389724452014 H 0.0 **** 0.06
11174 H 158.8867107485263 39.70583036428462 49.215885251880024 H 0.0 **** 0.06
11175 H 158.50912861782226 38.90656585601326 47.67061618113141 H 0.0 **** 0.06
11176 C 111.14012210531968 116.1913151222019 170.87974013887685 C 0.0 **** -0.24
11177 H 111.13944835824435 116.03198615459718 169.80159358004062 H 0.0 **** 0.06
11178 H 110.92589011888475 117.23869788352903 171.092336451876 H 0.0 **** 0.06
11179 H 112.11843846220256 115.93102916408725 171.2838892614493 H 0.0 **** 0.06
11180 H 110.37792868616327 115.56222896885913 171.33947374307513 H 0.0 **** 0.06
11181 C 43.60283086034684 82.05991202254049 135.12809467335217 C 0.0 **** -0.24
11182 H 43.40164654739689 81.64207250665929 136.11430417657502 H 0.0 **** 0.06
11183 H 44.61431524590904 82.46805020530137 135.10653537075277 H 0.0 **** 0.06
11184 H 42.88608022325957 82.85230985685551 134.9167623977236 H 0.0 **** 0.06
11185 H 43.511249353292726 81.27599998343558 134.37558290759333 H 0.0 **** 0.06
11186 C 164.26091026439556 82.61360465748038 107.68923129608231 C 0.0 **** -0.24
11187 H 165.32293994755807 82.57716567529661 107.44517934043802 H 0.0 **** 0.06
11188 H 163.67540010617572 82.55152731972228 106.77160257978471 H 0.0 **** 0.06
11189 H 164.03749165446362 83.54854372618314 108.20148143104879 H 0.0 **** 0.06
11190 H 164.0097977347062 81.77404211280975 108.33822778639322 H 0.0 **** 0.06
11191 C 87.9837817499519 76.15677328565755 165.1981492846558 C 0.0 **** -0.24
11192 H 88.649991653153 75.89525675189887 164.3758302092603 H 0.0 **** 0.06
11193 H 87.308887911218 76.95121198366101 164.87958587428915 H 0.0 **** 0.06
11194 H 88.57364203062525 76.4988787167418 166.04815216161072 H 0.0 **** 0.06
11195 H 87.40330029046515 75.27996028226991 165.48787581425896 H 0.0 **** 0.06
11196 C 62.42178020236088 50.3065658443478 36.861898606681976 C 0.0 **** -0.24
11197 H 61.48320695964492 50.77832359288422 36.57083833414433 H 0.0 **** 0.06
11198 H 63.09635839827581 50.27921427713849 36.005848170659704 H 0.0 **** 0.06
11199 H 62.226752426119845 49.29019053522158 37.20397547178338 H 0.0 **** 0.06
11200 H 62.880570270864155 50.879120142412575 37.66883074221816 H 0.0 **** 0.06
11201 C 21.13952813650627 83.19516678432173 21.630373020346553 C 0.0 **** -0.24
11202 H 21.17498432369041 83.87114987331978 20.776991006455717 H 0.0 **** 0.06
11203 H 20.690472496341897 82.24905067957842 21.32761974951225 H 0.0 **** 0.06
11204 H 20.54162405735491 83.64381338218999 22.42481696297449 H 0.0 **** 0.06
11205 H 22.15123928214865 83.01795695329258 21.994565832645407 H 0.0 **** 0.06
11206 C 45.58205064624936 51.98437372063273 16.151292247229037 C 0.0 **** -0.24
11207 H 46.62378023788108 51.90757421302649 16.462707529273132 H 0.0 **** 0.06
11208 H 45.30798942105855 53.03507886926445 16.05317324956576 H 0.0 **** 0.06
11209 H 44.94454366670426 51.51092573807817 16.897730478892925 H 0.0 **** 0.06
11210 H 45.451142919074925 51.48337278325715 15.191942246660574 H 0.0 **** 0.06
11211 C 30.672900760591176 117.74878011287848 8.016405740113079 C 0.0 **** -0.24
11212 H 30.14947572184178 116.81042742040216 7.833455927057692 H 0.0 **** 0.06
11213 H 30.424287274769227 118.11489520915791 9.01327197865485 H 0.0 **** 0.06
11214 H 30.36839198332018 118.48518264007413 7.2725966839059595 H 0.0 **** 0.06
11215 H 31.747968026268097 117.5839899188702 7.946945381586545 H 0.0 **** 0.06
11216 C 77.13288986272528 74.5714746428171 136.34822258526128 C 0.0 **** -0.24
11217 H 76.14944546856489 74.19473762487729 136.62715894774675 H 0.0 **** 0.06
11218 H 77.03018916002108 75.28124471523466 135.52743747795444 H 0.0 **** 0.06
11219 H 77.76459813587749 73.7402930683113 136.0337387973765 H 0.0 **** 0.06
11220 H 77.5873266864374 75.06962316284506 137.20455511796774 H 0.0 **** 0.06
11221 C 76.13319287987161 137.2354007944282 41.47917886725841 C 0.0 **** -0.24
11222 H 75.50508352829246 136.54337637588225 40.91801664672806 H 0.0 **** 0.06
11223 H 77.14468788874183 137.21727197168713 41.07288662069874 H 0.0 **** 0.06
11224 H 76.15623815506729 136.93514386754075 42.52733959555657 H 0.0 **** 0.06
11225 H 75.72625809363853 138.2425980252088 41.39782185882052 H 0.0 **** 0.06
11226 C 162.4593828002828 61.84528438089109 88.11155851810854 C 0.0 **** -0.24
11227 H 162.24402581045146 61.62852769866919 87.06514268321098 H 0.0 **** 0.06
11228 H 162.7759624681396 60.930784080944136 88.61334702588432 H 0.0 **** 0.06
11229 H 161.56259343493053 62.23320430496153 88.59414647672405 H 0.0 **** 0.06
11230 H 163.2557588107711 62.587149250946624 88.172122150173 H 0.0 **** 0.06
11231 C 159.77934038477954 100.34372066928668 93.37920826401643 C 0.0 **** -0.24
11232 H 160.12551388000284 101.34866245643394 93.1378701247263 H 0.0 **** 0.06
11233 H 158.78407389965716 100.19271138916238 92.96147749054708 H 0.0 **** 0.06
11234 H 159.74259898046336 100.22381108733967 94.46203740586037 H 0.0 **** 0.06
11235 H 160.4675446638925 99.6125139601123 92.95612106139001 H 0.0 **** 0.06
11236 C 109.53120968879796 55.52285232592726 40.939302949753085 C 0.0 **** -0.24
11237 H 108.6951742625275 55.90508592085288 40.35264251867477 H 0.0 **** 0.06
11238 H 110.42226988282178 56.116324590533964 40.731169275631544 H 0.0 **** 0.06
11239 H 109.71704982788671 54.4826367100128 40.67153606381402 H 0.0 **** 0.06
11240 H 109.29016744311826 55.58803952206898 41.999740319935256 H 0.0 **** 0.06
11241 C 161.32197795698693 95.98309977383627 111.15026102718377 C 0.0 **** -0.24
11242 H 161.16873595251238 96.21454439086162 112.20397609385924 H 0.0 **** 0.06
11243 H 161.29270870534262 96.90454032734351 110.56740440246526 H 0.0 **** 0.06
11244 H 160.53371679611328 95.31147647513976 110.80807728764108 H 0.0 **** 0.06
11245 H 162.29060962755287 95.50166764951501 111.02096314061671 H 0.0 **** 0.06
11246 C 146.46540675001535 78.78364144797477 98.79350272763207 C 0.0 **** -0.24
11247 H 146.13436611638394 79.81821559266646 98.70612076103049 H 0.0 **** 0.06
11248 H 145.75545711565837 78.22589179913014 99.40424492477871 H 0.0 **** 0.06
11249 H 147.44995617283317 78.75488418994155 99.26133032941175 H 0.0 **** 0.06
11250 H 146.52271800683295 78.3359009376375 97.80124920840012 H 0.0 **** 0.06
11251 C 19.3809036245961 46.5643443105394 11.707274939000499 C 0.0 **** -0.24
11252 H 20.08394302499869 47.3298962171134 11.375106101567283 H 0.0 **** 0.06
11253 H 19.61595925094872 46.277487081761976 12.732615852578213 H 0.0 **** 0.06
11254 H 19.4596536719327 45.692973391892494 11.056936299271449 H 0.0 **** 0.06
11255 H 18.366372556117625 46.95987892857136 11.663751974517453 H 0.0 **** 0.06
11256 C 73.98796589423361 131.95962822161925 157.7695398574937 C 0.0 **** -0.24
11257 H 73.27095098328759 132.75362752417206 157.97799586522646 H 0.0 **** 0.06
11258 H 73.93414145469048 131.20724201177833 158.55597999399865 H 0.0 **** 0.06
11259 H 74.99346148077225 132.37873668326944 157.73446989490668 H 0.0 **** 0.06
11260 H 73.75154740733718 131.49979562156273 156.80939065274268 H 0.0 **** 0.06
11261 C 41.47126085194495 17.725513561759264 79.90387612014906 C 0.0 **** -0.24
11262 H 41.057983719451144 17.18079128257265 79.05404620726843 H 0.0 **** 0.06
11263 H 42.520099157690794 17.457681155661845 80.03141511237096 H 0.0 **** 0.06
11264 H 40.916920394820266 17.4654995378595 80.80511611201722 H 0.0 **** 0.06
11265 H 41.38739754903733 18.797118080467875 79.72245977050304 H 0.0 **** 0.06
11266 C 26.583381126516016 131.214251826271 26.722365883019698 C 0.0 **** -0.24
11267 H 26.518101846168392 132.24631785676362 27.067656375929573 H 0.0 **** 0.06
11268 H 25.898551375848072 130.59430812721843 27.302421272317204 H 0.0 **** 0.06
11269 H 27.602278116400797 130.85144355839742 26.853553682546377 H 0.0 **** 0.06
11270 H 26.31377246854455 131.16616497806004 25.667786827348458 H 0.0 **** 0.06
11271 C 46.25802650322589 14.906747059898343 100.83420950833607 C 0.0 **** -0.24
11272 H 46.175553711372004 14.463722388308582 99.8414776323597 H 0.0 **** 0.06
11273 H 47.015818467904694 15.690415811954026 100.82014452467575 H 0.0 **** 0.06
11274 H 46.54411204867 14.137627827815315 101.55178449267757 H 0.0 **** 0.06
11275 H 45.29790595269722 15.334057852224689 101.12170067618965 H 0.0 **** 0.06
11276 C 98.2984403415036 51.18880838153301 153.64967295926647 C 0.0 **** -0.24
11277 H 99.06223784657524 50.53563027577188 154.07044592632624 H 0.0 **** 0.06
11278 H 98.23493893641611 51.027135381757375 152.57349379010833 H 0.0 **** 0.06
11279 H 98.56217539435409 52.22890251072208 153.84535446676657 H 0.0 **** 0.06
11280 H 97.33579702283978 50.9652076717493 154.10878376370238 H 0.0 **** 0.06
11281 C 48.20383233073093 67.20522875296473 105.7864479022688 C 0.0 **** -0.24
11282 H 47.29056492487557 67.45680849039297 106.32504556987749 H 0.0 **** 0.06
11283 H 48.51878499621685 68.0586936750893 105.18677665474584 H 0.0 **** 0.06
11284 H 48.017392620504864 66.35147571850399 105.13509456468054 H 0.0 **** 0.06
11285 H 48.98857745487216 66.95247060481944 106.50023472229717 H 0.0 **** 0.06
11286 C 166.95926023523307 150.61173599924032 41.65829488046397 C 0.0 **** -0.24
11287 H 167.80913653403476 151.28280468187086 41.78322001198225 H 0.0 **** 0.06
11288 H 166.9836867151899 150.17613393573225 40.65950743094005 H 0.0 **** 0.06
11289 H 166.03357423969285 151.1716476045176 41.788968517137505 H 0.0 **** 0.06
11290 H 167.01158494860007 149.81726874998517 42.40355331445217 H 0.0 **** 0.06
11291 C 57.60449302230634 75.38463514573093 96.79797228123462 C 0.0 **** -0.24
11292 H 57.41159200782346 76.43984750418953 96.989748829076 H 0.0 **** 0.06
11293 H 57.200261287395676 74.78730857727408 97.61493669111869 H 0.0 **** 0.06
11294 H 58.679209629353366 75.21998106631493 96.72255062875217 H 0.0 **** 0.06
11295 H 57.12575802192376 75.09305850668025 95.86266908282767 H 0.0 **** 0.06
11296 C 125.62939682752352 12.680286247791514 104.94263172836688 C 0.0 **** -0.24
11297 H 125.6201882432423 13.599911485056737 105.52772301241478 H 0.0 **** 0.06
11298 H 126.55288203475459 12.625275747039609 104.36691297799896 H 0.0 **** 0.06
11299 H 124.77684858016704 12.672572881898247 104.26404116341365 H 0.0 **** 0.06
11300 H 125.56739306732163 11.823312261169121 105.61382940656844 H 0.0 **** 0.06
11301 C 71.5757423810208 49.43965439370457 39.658641246419904 C 0.0 **** -0.24
11302 H 71.42604954667846 49.95766806883802 38.71094873610873 H 0.0 **** 0.06
11303 H 71.27336061347359 48.39801802901641 39.554113188487435 H 0.0 **** 0.06
11304 H 70.97432759458914 49.91774555040382 40.43225956563525 H 0.0 **** 0.06
11305 H 72.62907614717955 49.487440421941486 39.93527035487968 H 0.0 **** 0.06
11306 C 15.90598039477726 39.100670065545955 57.45981726511337 C 0.0 **** -0.24
11307 H 16.600029869429534 38.25961836992002 57.47883289645081 H 0.0 **** 0.06
11308 H 15.693631652315617 39.418855544110784 58.4811307500387 H 0.0 **** 0.06
11309 H 14.980281475937147 38.79580269010438 56.972932733610875 H 0.0 **** 0.06
11310 H 16.352975973261692 39.92725148333068 56.90767209206196 H 0.0 **** 0.06
11311 C 92.75507588964541 127.66012303485849 77.123706015903 C 0.0 **** -0.24
11312 H 92.74686495465141 127.09873813774868 76.18958249376362 H 0.0 **** 0.06
11313 H 93.74411195604324 127.59452671149919 77.57710205210861 H 0.0 **** 0.06
11314 H 92.01339221720602 127.24360349556108 77.80476986730629 H 0.0 **** 0.06
11315 H 92.5171587110066 128.70458499738473 76.92080499093801 H 0.0 **** 0.06
11316 C 148.51726774499343 171.8302180898099 42.33653265635314 C 0.0 **** -0.24
11317 H 147.78262359390408 171.9477329054913 41.53929589591394 H 0.0 **** 0.06
11318 H 148.30117977773435 172.53790147470085 43.1363453702117 H 0.0 **** 0.06
11319 H 149.51574334293826 172.02144959980075 41.94125652327142 H 0.0 **** 0.06
11320 H 148.46978789196265 170.8135131214165 42.726813145590654 H 0.0 **** 0.06
11321 C 3.0241296320924675 32.02051108617576 46.773482782473806 C 0.0 **** -0.24
11322 H 3.9140498313360013 31.968737492611382 46.146795700516975 H 0.0 **** 0.06
11323 H 2.4017275686011885 31.143166944775203 46.59325749094063 H 0.0 **** 0.06
11324 H 2.4600135256490603 32.921413141634275 46.53038668309253 H 0.0 **** 0.06
11325 H 3.318676769376509 32.047978635452466 47.8223801518004 H 0.0 **** 0.06
11326 C 40.969512929687255 99.38558876802546 56.40622771307443 C 0.0 **** -0.24
11327 H 41.27514382022321 100.35367702063803 56.80236918151887 H 0.0 **** 0.06
11328 H 41.49587978264776 98.59246636954498 56.93748093767829 H 0.0 **** 0.06
11329 H 41.21318855316079 99.33575141669496 55.344594708235206 H 0.0 **** 0.06
11330 H 39.89459211152345 99.26199143457501 56.53870836781563 H 0.0 **** 0.06
11331 C 50.72582965463765 19.569638385354352 19.463356499430276 C 0.0 **** -0.24
11332 H 49.66922406405878 19.492492932092148 19.207527685588417 H 0.0 **** 0.06
11333 H 50.8957883795034 20.481663352508576 20.03606820012807 H 0.0 **** 0.06
11334 H 51.31867904028468 19.597823387066626 18.549955517537484 H 0.0 **** 0.06
11335 H 51.01872573800637 18.705496282267887 20.060036906129938 H 0.0 **** 0.06
11336 C 16.535781374630034 7.6333880703044485 150.88078769304258 C 0.0 **** -0.24
11337 H 16.472091627797084 8.07736885418825 151.8733318053611 H 0.0 **** 0.06
11338 H 16.00639428631885 8.264289951638318 150.16651931066517 H 0.0 **** 0.06
11339 H 16.08171643013489 6.642321704972346 150.89597601458354 H 0.0 **** 0.06
11340 H 17.582285507690727 7.549507056773194 150.58655601735805 H 0.0 **** 0.06
11341 C 26.496812927384156 11.910107868922367 50.651350876506285 C 0.0 **** -0.24
11342 H 26.25983558076956 11.052495250373177 51.28152667548426 H 0.0 **** 0.06
11343 H 26.333430439748668 11.648983586444608 49.60566093025619 H 0.0 **** 0.06
11344 H 27.539861046320397 12.1900023921255 50.798646019790965 H 0.0 **** 0.06
11345 H 25.854665160034074 12.748006090419068 50.922703044563946 H 0.0 **** 0.06
11346 C 167.1190368325783 84.83485369186606 78.33528387379224 C 0.0 **** -0.24
11347 H 168.02493218364447 84.38603519800456 78.74423716172515 H 0.0 **** 0.06
11348 H 166.85341702842712 84.33068684949056 77.40505371164957 H 0.0 **** 0.06
11349 H 167.29382244324398 85.89221341302954 78.13942790035281 H 0.0 **** 0.06
11350 H 166.30554240158534 84.72723191771911 79.05240278713933 H 0.0 **** 0.06
11351 C 155.51281930181005 56.54139988035875 6.353660487489741 C 0.0 **** -0.24
11352 H 155.68256354942696 55.510294076274064 6.043586468584458 H 0.0 **** 0.06
11353 H 154.75021938060846 56.56636901005935 7.131372553410024 H 0.0 **** 0.06
11354 H 155.17874658892057 57.126685385928155 5.497306315527901 H 0.0 **** 0.06
11355 H 156.44175254739972 56.96091410655775 6.740895616885233 H 0.0 **** 0.06
11356 C 140.3965664576371 127.09601621765577 62.47855427986873 C 0.0 **** -0.24
11357 H 140.5597467333929 127.98015150705947 61.861192788908 H 0.0 **** 0.06
11358 H 140.70904725267022 126.20730119814942 61.92919776180108 H 0.0 **** 0.06
11359 H 139.33802210620232 127.01699876395992 62.726772511690996 H 0.0 **** 0.06
11360 H 140.97948197107314 127.18166605066736 63.395717733818174 H 0.0 **** 0.06
11361 C 155.65067690759588 148.54744861548696 31.061121522404875 C 0.0 **** -0.24
11362 H 155.84149736499506 148.07951455610637 32.02698199812622 H 0.0 **** 0.06
11363 H 156.58812655522667 148.91855785305341 30.64686402023402 H 0.0 **** 0.06
11364 H 154.95627876196158 149.377906345246 31.190730066320185 H 0.0 **** 0.06
11365 H 155.21730613876576 147.81385016576394 30.382088940529385 H 0.0 **** 0.06
11366 C 63.58410001049813 134.1829279311134 90.66723873806082 C 0.0 **** -0.24
11367 H 64.23445954427172 133.84598545804764 89.86057126830063 H 0.0 **** 0.06
11368 H 63.82591122758852 133.63918271113306 91.5802347099162 H 0.0 **** 0.06
11369 H 62.543777069467836 133.99561687407348 90.39765946374628 H 0.0 **** 0.06
11370 H 63.730038274196374 135.25076564252825 90.83021981452434 H 0.0 **** 0.06
11371 C 20.693615895263164 25.884873969744206 32.691886999581016 C 0.0 **** -0.24
11372 H 19.94959325920403 26.331469234385423 33.352300658795514 H 0.0 **** 0.06
11373 H 20.709743283719064 26.425087251004413 31.744979548731067 H 0.0 **** 0.06
11374 H 20.43897690618619 24.84069270436507 32.51172140441918 H 0.0 **** 0.06
11375 H 21.67643804825554 25.94418464013617 33.159624157277364 H 0.0 **** 0.06
11376 C 158.89203112060756 81.6328374933532 115.2402084131611 C 0.0 **** -0.24
11377 H 157.9650293356859 81.80441152423569 115.78571109744163 H 0.0 **** 0.06
11378 H 159.4592198923844 80.84005349538204 115.72834735398791 H 0.0 **** 0.06
11379 H 159.48197970015215 82.54921634301682 115.22886569507031 H 0.0 **** 0.06
11380 H 158.66137070330038 81.33653107770425 114.21605729403765 H 0.0 **** 0.06
11381 C 27.90757206712553 15.173851553856082 53.59226314060436 C 0.0 **** -0.24
11382 H 26.92909785620661 14.752107391571428 53.818833711493895 H 0.0 **** 0.06
11383 H 28.61815493350028 14.878008108309075 54.36402141210817 H 0.0 **** 0.06
11384 H 27.836006620461504 16.26118529618026 53.56223131264562 H 0.0 **** 0.06
11385 H 28.247233545702983 14.805822272580258 52.624069091737795 H 0.0 **** 0.06
11386 C 141.00473210896791 127.45630190406291 131.79304553413962 C 0.0 **** -0.24
11387 H 141.71705330829002 128.09687645270026 131.27269089264118 H 0.0 **** 0.06
11388 H 140.15843919828563 127.24773963368273 131.13896277343764 H 0.0 **** 0.06
11389 H 140.65364558284938 127.96077030098778 132.6933705194645 H 0.0 **** 0.06
11390 H 141.49253695297665 126.52004247587169 132.06779625015676 H 0.0 **** 0.06
11391 C 77.77601713490469 79.72503633919413 22.861182432391665 C 0.0 **** -0.24
11392 H 77.92584212345574 80.77755725777507 22.62340241423385 H 0.0 **** 0.06
11393 H 77.44152631658892 79.62962048309475 23.89440549836325 H 0.0 **** 0.06
11394 H 78.71581880518482 79.18726716051839 22.73167819880456 H 0.0 **** 0.06
11395 H 77.02228286640258 79.30573024073897 22.19543007080788 H 0.0 **** 0.06
11396 C 42.443852061863936 66.34604258283849 33.01067469669641 C 0.0 **** -0.24
11397 H 42.35679455329063 66.08256418440305 31.956268547490495 H 0.0 **** 0.06
11398 H 43.07842341630976 67.22678686391424 33.11313402746555 H 0.0 **** 0.06
11399 H 42.88676267774554 65.51351280754261 33.55749052460443 H 0.0 **** 0.06
11400 H 41.454234395049355 66.56044580769378 33.41365894540216 H 0.0 **** 0.06
11401 C 125.17729814995016 111.81695142739215 110.59264752459282 C 0.0 **** -0.24
11402 H 126.15345787983506 112.0050455012917 110.14599779980068 H 0.0 **** 0.06
11403 H 125.30235317653867 111.24143110782481 111.5098758434973 H 0.0 **** 0.06
11404 H 124.55997795604924 111.25582012832226 109.892260786067 H 0.0 **** 0.06
11405 H 124.6949972615763 112.76705610688487 110.8221973741012 H 0.0 **** 0.06
11406 C 12.60967692490101 11.689697373365668 80.82129655935034 C 0.0 **** -0.24
11407 H 13.322462714305857 10.984616569580929 81.24963250174133 H 0.0 **** 0.06
11408 H 12.156633640048256 12.276794163286546 81.61993246919451 H 0.0 **** 0.06
11409 H 11.834690516367857 11.142659525790755 80.2863014301445 H 0.0 **** 0.06
11410 H 13.128243652204446 12.355510233234341 80.13084743499122 H 0.0 **** 0.06
11411 C 18.60572037276185 111.18861626728741 20.936494046824166 C 0.0 **** -0.24
11412 H 19.53256225110917 111.60617779008243 20.544665437224438 H 0.0 **** 0.06
11413 H 18.430239940136318 111.57304622175596 21.9415957494547 H 0.0 **** 0.06
11414 H 18.682324483214074 110.10246417726188 20.971345108342717 H 0.0 **** 0.06
11415 H 17.776889858687156 111.473258217025 20.288227799072864 H 0.0 **** 0.06
11416 C 155.38603923136102 30.726545493479236 59.296061645976465 C 0.0 **** -0.24
11417 H 154.61858833396045 30.08097409121595 58.86961134907041 H 0.0 **** 0.06
11418 H 155.21141597659405 31.755840615330328 58.97998807116187 H 0.0 **** 0.06
11419 H 156.36706081835484 30.401928651152517 58.95097223435046 H 0.0 **** 0.06
11420 H 155.34567895791767 30.668838595730094 60.38346503378692 H 0.0 **** 0.06
11421 C 127.5457076763009 75.64728186099867 66.11977978289542 C 0.0 **** -0.24
11422 H 127.10729646425452 74.86138295718199 66.73397167343126 H 0.0 **** 0.06
11423 H 128.5646344363624 75.37248929322564 65.84956237173492 H 0.0 **** 0.06
11424 H 127.55735793273203 76.58252037261715 66.68093254955369 H 0.0 **** 0.06
11425 H 126.95114568831391 75.77560397038118 65.21481586824342 H 0.0 **** 0.06
11426 C 7.077019446626025 138.2432776658104 123.9733605528906 C 0.0 **** -0.24
11427 H 6.09417108374285 138.55896185885905 123.62391561979368 H 0.0 **** 0.06
11428 H 7.5153136682751835 139.03210571155978 124.58469816341668 H 0.0 **** 0.06
11429 H 7.721046679673975 138.04557028821466 123.11685609698446 H 0.0 **** 0.06
11430 H 6.976490632633897 137.3352975195246 124.56919881715314 H 0.0 **** 0.06
11431 C 71.3102893373251 128.03206083827808 168.68618741203866 C 0.0 **** -0.24
11432 H 71.22694650587235 127.25909130323404 167.92214928629892 H 0.0 **** 0.06
11433 H 70.5499784494506 127.87038560203825 169.45113818950261 H 0.0 **** 0.06
11434 H 71.16510194912435 129.01072907994393 168.2294256981077 H 0.0 **** 0.06
11435 H 72.29924892695726 127.9863094572911 169.1420557285258 H 0.0 **** 0.06
11436 C 46.6985633829197 72.44363187258516 101.54263923653065 C 0.0 **** -0.24
11437 H 46.289438034093905 72.28318170846913 102.5393710645042 H 0.0 **** 0.06
11438 H 46.85810006462327 73.51020020760063 101.38353478837317 H 0.0 **** 0.06
11439 H 45.99770597183317 72.06641822608054 100.79730779040219 H 0.0 **** 0.06
11440 H 47.64698439570509 71.91608881447702 101.450129557266 H 0.0 **** 0.06
11441 C 142.47742156768385 19.75888663551335 98.02210848166612 C 0.0 **** -0.24
11442 H 141.8806067459625 18.960118102846643 98.46277172407775 H 0.0 **** 0.06
11443 H 142.89718181631258 19.41886034172274 97.07540544632565 H 0.0 **** 0.06
11444 H 143.28560920056654 20.025793431304272 98.70329546507418 H 0.0 **** 0.06
11445 H 141.8461339113528 20.630325397872355 97.84936429461794 H 0.0 **** 0.06
11446 C 78.42504457753034 109.25426109806355 74.13839807576576 C 0.0 **** -0.24
11447 H 77.83336592634078 109.84877471429417 73.44337931604178 H 0.0 **** 0.06
11448 H 78.7609969217784 108.34306365297795 73.64295237975972 H 0.0 **** 0.06
11449 H 77.81543758943053 108.99420399319999 75.00406823360157 H 0.0 **** 0.06
11450 H 79.29093423987678 109.83039215126288 74.46375675748862 H 0.0 **** 0.06
11451 C 0.5267255283068835 70.80637213109878 125.07971500198173 C 0.0 **** -0.24
11452 H -0.3768341843531289 70.82486370510009 125.68986262232866 H 0.0 **** 0.06
11453 H 0.4307210313492078 70.03654897428964 124.31330606398728 H 0.0 **** 0.06
11454 H 1.3860023137484632 70.58431051577674 125.71240309741387 H 0.0 **** 0.06
11455 H 0.6653231897239493 71.77757639794413 124.6056020186488 H 0.0 **** 0.06
11456 C 102.98204412585412 136.58751144893782 12.372604003086131 C 0.0 **** -0.24
11457 H 102.0549301955543 136.38312658201204 11.836718024374221 H 0.0 **** 0.06
11458 H 103.57322465122098 137.31235393050588 11.812386932652942 H 0.0 **** 0.06
11459 H 103.54930025514903 135.66330024617824 12.482936781336932 H 0.0 **** 0.06
11460 H 102.74931059601116 136.9911686546966 13.358394128434874 H 0.0 **** 0.06
11461 C 56.27637898114838 115.54811421159386 105.53075535393646 C 0.0 **** -0.24
11462 H 55.70759994071523 114.93669182577233 104.83075304445049 H 0.0 **** 0.06
11463 H 57.0773304123059 116.0610169654725 104.99767489699283 H 0.0 **** 0.06
11464 H 56.70518142823849 114.91197766953837 106.3049833194313 H 0.0 **** 0.06
11465 H 55.61588611511797 116.28443031819032 105.98972155848139 H 0.0 **** 0.06
11466 C 111.8521770872112 4.876158330543255 120.76585018681953 C 0.0 **** -0.24
11467 H 111.41021059583883 5.1161069360481335 121.73275890247425 H 0.0 **** 0.06
11468 H 111.08032338401401 4.4931604974674215 120.09779874905854 H 0.0 **** 0.06
11469 H 112.62680771985697 4.119942725781748 120.89749196966255 H 0.0 **** 0.06
11470 H 112.29259273185244 5.776033115852897 120.33499794850766 H 0.0 **** 0.06
11471 C 106.77187994079497 48.23983874346588 162.1492610354773 C 0.0 **** -0.24
11472 H 106.2545654435516 47.94283118635664 163.0618082507184 H 0.0 **** 0.06
11473 H 107.37592636662686 49.12568866325863 162.3458952762954 H 0.0 **** 0.06
11474 H 106.03856985430656 48.46338690773885 161.37381681036265 H 0.0 **** 0.06
11475 H 107.41649057960785 47.427094521990384 161.8154615104222 H 0.0 **** 0.06
11476 C 62.2485431465293 143.9348330905714 10.806066051023663 C 0.0 **** -0.24
11477 H 62.812030005024155 144.25788244495666 11.68115681640478 H 0.0 **** 0.06
11478 H 62.74392167763533 143.0750741562864 10.353219593352833 H 0.0 **** 0.06
11479 H 62.19956022581144 144.74943075956918 10.084217406001386 H 0.0 **** 0.06
11480 H 61.23914218966755 143.6548694123139 11.108212116697587 H 0.0 **** 0.06
11481 C 28.147545747371424 28.636880076480224 44.356226923663655 C 0.0 **** -0.24
11482 H 29.21764640809269 28.763806261168043 44.19088026507234 H 0.0 **** 0.06
11483 H 27.98084978492321 27.783158096571526 45.013560506621815 H 0.0 **** 0.06
11484 H 27.651180991588063 28.463277015547646 43.40185636138233 H 0.0 **** 0.06
11485 H 27.74184018899051 29.536820878723574 44.81851226849737 H 0.0 **** 0.06
11486 C 162.66898881672094 33.94252621741157 45.66741436831184 C 0.0 **** -0.24
11487 H 161.80003672786464 33.76394299307589 46.29910846021947 H 0.0 **** 0.06
11488 H 163.17123394606176 32.996155210739346 45.46378242777709 H 0.0 **** 0.06
11489 H 163.35694555989247 34.61670756490821 46.177885937701674 H 0.0 **** 0.06
11490 H 162.34850125521876 34.392626368215815 44.72747831667202 H 0.0 **** 0.06
11491 C 121.97414465719453 110.09239679744547 142.65503324088698 C 0.0 **** -0.24
11492 H 121.13278302600207 110.49945433464188 142.09405288734243 H 0.0 **** 0.06
11493 H 122.57402703507921 110.91070968226288 143.05522992197035 H 0.0 **** 0.06
11494 H 122.58960167978648 109.48058226834777 141.99441015610967 H 0.0 **** 0.06
11495 H 121.60106747861727 109.47896933713523 143.47535717897705 H 0.0 **** 0.06
11496 C 36.40360742460652 50.260359518683515 21.607838281657365 C 0.0 **** -0.24
11497 H 36.375774587764624 50.55724939562373 22.656408225901743 H 0.0 **** 0.06
11498 H 35.622786081643795 49.52348479936927 21.41842900070816 H 0.0 **** 0.06
11499 H 37.377015322455804 49.82534640267454 21.38023368769737 H 0.0 **** 0.06
11500 H 36.240114088187426 51.13510435618258 20.97899286157343 H 0.0 **** 0.06
11501 C 142.8344703390894 127.54690112145693 96.70207444200713 C 0.0 **** -0.24
11502 H 142.73364376930365 127.7445728673126 95.63455671888852 H 0.0 **** 0.06
11503 H 143.10629895831892 126.5019096902985 96.8533864206625 H 0.0 **** 0.06
11504 H 141.88679363896898 127.75193725825326 97.20014194994178 H 0.0 **** 0.06
11505 H 143.61040744551136 128.1880555595239 97.11816785441641 H 0.0 **** 0.06
11506 C 51.89399823232691 88.85511923397792 67.22698498059378 C 0.0 **** -0.24
11507 H 52.95203557296543 89.11534164301604 67.19072923592682 H 0.0 **** 0.06
11508 H 51.76814036285987 87.92173091449547 67.77537190405064 H 0.0 **** 0.06
11509 H 51.51470718364334 88.73375099682875 66.21175925733155 H 0.0 **** 0.06
11510 H 51.342058770234246 89.64972843663666 67.72863248508725 H 0.0 **** 0.06
11511 C 140.32535581110102 160.803374323048 37.01257603020285 C 0.0 **** -0.24
11512 H 140.81783852977776 161.08043768850325 36.08074136952159 H 0.0 **** 0.06
11513 H 139.27217757049618 161.0782737448924 36.96209767790049 H 0.0 **** 0.06
11514 H 140.79910195772885 161.32554032637378 37.843092377763895 H 0.0 **** 0.06
11515 H 140.41380681246608 159.72675808715786 37.1624864108108 H 0.0 **** 0.06
11516 C 126.05338136511205 116.71606626391025 25.282880681661602 C 0.0 **** -0.24
11517 H 126.50607270217324 115.75896908167644 25.02008460889533 H 0.0 **** 0.06
11518 H 125.49913526936746 116.61088720947913 26.21531931527077 H 0.0 **** 0.06
11519 H 125.37413020338488 117.02630636472381 24.48831403983037 H 0.0 **** 0.06
11520 H 126.83506353044129 117.46580653860195 25.40581441200282 H 0.0 **** 0.06
11521 C 102.54933305219757 150.96046916837616 34.7691363689446 C 0.0 **** -0.24
11522 H 101.83046062951561 150.3577018983924 35.32412307468189 H 0.0 **** 0.06
11523 H 102.49917877650299 151.99334736896134 35.11431511617661 H 0.0 **** 0.06
11524 H 102.31387038509311 150.92116107130005 33.70568143997804 H 0.0 **** 0.06
11525 H 103.55383836240466 150.57015128294262 34.934088570087056 H 0.0 **** 0.06
11526 C 61.36797044826157 43.875853255637026 112.4298521634887 C 0.0 **** -0.24
11527 H 61.856447483369365 44.81223360135351 112.15683701538086 H 0.0 **** 0.06
11528 H 60.320841831070325 44.06760880652217 112.66367399249174 H 0.0 **** 0.06
11529 H 61.86378191617308 43.450185268314726 113.30270264316823 H 0.0 **** 0.06
11530 H 61.43294622565833 43.17619375704004 111.59693806088364 H 0.0 **** 0.06
11531 C 91.760840661276 125.62233093999126 155.77289676693533 C 0.0 **** -0.24
11532 H 91.28808953051885 125.39513672329122 156.72903189069046 H 0.0 **** 0.06
11533 H 92.24199422114611 126.59905823005892 155.82998666238814 H 0.0 **** 0.06
11534 H 91.00407738097408 125.63454105171897 154.98813982877112 H 0.0 **** 0.06
11535 H 92.50742981327892 124.86108374544128 155.54768682438157 H 0.0 **** 0.06
11536 C 55.31860745445938 125.34867019462243 126.97976157466962 C 0.0 **** -0.24
11537 H 55.02738447524494 124.3187009190645 127.1857752937077 H 0.0 **** 0.06
11538 H 55.885228383350466 125.74224374664547 127.8245336202034 H 0.0 **** 0.06
11539 H 54.42614836166614 125.95523461250372 126.82713605787353 H 0.0 **** 0.06
11540 H 55.93628079914623 125.37927738884349 126.08175375425404 H 0.0 **** 0.06
11541 C 134.75790752169831 74.82613784267082 11.616119012642734 C 0.0 **** -0.24
11542 H 135.6789535734652 74.59014364922993 12.15060487837227 H 0.0 **** 0.06
11543 H 134.63278409109307 75.90895116124832 11.570834494487805 H 0.0 **** 0.06
11544 H 133.91079037825727 74.38302561195627 12.139266475942634 H 0.0 **** 0.06
11545 H 134.81202003671078 74.4240234443376 10.605166496053947 H 0.0 **** 0.06
11546 C 137.484298986481 93.15418709343112 171.9261621621063 C 0.0 **** -0.24
11547 H 136.9048178091188 93.42563701770081 172.80901249552628 H 0.0 **** 0.06
11548 H 137.13515874277147 92.19382047336984 171.5445756345139 H 0.0 **** 0.06
11549 H 138.53824331416496 93.07748726676408 172.19375454037822 H 0.0 **** 0.06
11550 H 137.35771928853643 93.9177816492674 171.15913145819363 H 0.0 **** 0.06
11551 C 167.9940293928366 90.35340814421642 104.75701311584768 C 0.0 **** -0.24
11552 H 168.6009220777868 90.94563211640795 104.07159773712084 H 0.0 **** 0.06
11553 H 166.94047612413627 90.59278321801771 104.60789467829031 H 0.0 **** 0.06
11554 H 168.27675874167522 90.58274357770873 105.78449720988812 H 0.0 **** 0.06
11555 H 168.1565507119076 89.2933221960343 104.5629260691276 H 0.0 **** 0.06
11556 C 11.679664994761282 155.67572432171383 60.98166077047887 C 0.0 **** -0.24
11557 H 10.93929899458007 155.2049199029177 60.335747820227226 H 0.0 **** 0.06
11558 H 11.218308042606736 156.50196247972804 61.52173431058962 H 0.0 **** 0.06
11559 H 12.50330741117952 156.05271742303523 60.37485637550397 H 0.0 **** 0.06
11560 H 12.059432211693434 154.9417885187461 61.69336739517669 H 0.0 **** 0.06
11561 C 78.36049457868255 64.4422100676055 102.99392464771356 C 0.0 **** -0.24
11562 H 79.18508394922469 65.01516230284541 103.41897795401604 H 0.0 **** 0.06
11563 H 77.43112107042128 64.71768232907401 103.4948030434009 H 0.0 **** 0.06
11564 H 78.5474789774334 63.37804183147938 103.13378512625732 H 0.0 **** 0.06
11565 H 78.27775055428395 64.6606360113626 101.92884683734829 H 0.0 **** 0.06
11566 C 65.70501637587763 118.37035282414459 81.33423148317924 C 0.0 **** -0.24
11567 H 66.60869348101654 118.64888172717261 80.79209909594982 H 0.0 **** 0.06
11568 H 65.93964620381887 117.58081775225881 82.04798942012205 H 0.0 **** 0.06
11569 H 64.95435089619419 118.01362572529425 80.63029096806774 H 0.0 **** 0.06
11570 H 65.31993408174613 119.2391847962707 81.86766170811879 H 0.0 **** 0.06
11571 C 42.116515835242694 141.63866571406172 135.71822881576927 C 0.0 **** -0.24
11572 H 42.616621911955264 141.9055861116516 134.7867474022359 H 0.0 **** 0.06
11573 H 42.0341490870923 140.55332252300528 135.78794325953723 H 0.0 **** 0.06
11574 H 41.119952028193424 142.08081323271034 135.7338926896729 H 0.0 **** 0.06
11575 H 42.694451670676 142.0142206895219 136.56241055221187 H 0.0 **** 0.06
11576 C 27.032281467881084 171.68763496734095 98.49770499074211 C 0.0 **** -0.24
11577 H 27.849283443408822 172.4037979660426 98.59431017336934 H 0.0 **** 0.06
11578 H 27.345229447342582 170.72401800906152 98.8983008884822 H 0.0 **** 0.06
11579 H 26.769205449839596 171.57770054342757 97.44552077487828 H 0.0 **** 0.06
11580 H 26.166250738594158 172.04905696212506 99.05282760963965 H 0.0 **** 0.06
11581 C 19.409695507505376 155.00971310394607 98.97984581587326 C 0.0 **** -0.24
11582 H 18.396272196949525 155.0882697334225 99.37458276638495 H 0.0 **** 0.06
11583 H 19.82365969985483 156.00942995591492 98.84140051821004 H 0.0 **** 0.06
11584 H 19.387283875649075 154.49001528752433 98.02140796510147 H 0.0 **** 0.06
11585 H 20.03073551944965 154.45187657896577 99.68111817053929 H 0.0 **** 0.06
11586 C 69.07007258824868 88.92709518353193 88.73618163121238 C 0.0 **** -0.24
11587 H 69.66328673878783 89.29984929809162 89.57072432309035 H 0.0 **** 0.06
11588 H 69.67732301024428 88.9254785926601 87.83089300196515 H 0.0 **** 0.06
11589 H 68.20214551589952 89.57039672563536 88.59204314690655 H 0.0 **** 0.06
11590 H 68.73774351623565 87.91169628275514 88.95208356473569 H 0.0 **** 0.06
11591 C 120.32171806571733 126.00700183100449 122.84794403701892 C 0.0 **** -0.24
11592 H 119.455531671471 125.48992950087782 123.2607690845546 H 0.0 **** 0.06
11593 H 120.4561651730065 125.71429090953467 121.80562233278056 H 0.0 **** 0.06
11594 H 121.21021145575062 125.73824077357398 123.41820725694436 H 0.0 **** 0.06
11595 H 120.16359288789278 127.08302794411685 122.90584363621673 H 0.0 **** 0.06
11596 C 75.53143581154283 17.69966253979476 120.12245851293031 C 0.0 **** -0.24
11597 H 74.4779800117439 17.570513801839844 120.37031665828746 H 0.0 **** 0.06
11598 H 75.63454506061868 17.867337621732254 119.05041386248911 H 0.0 **** 0.06
11599 H 76.08365546641328 16.804007283315002 120.40569388994939 H 0.0 **** 0.06
11600 H 75.92866963591764 18.557378369753692 120.66510022165187 H 0.0 **** 0.06
11601 C 7.029145560948564 57.350263616112926 104.86876981765636 C 0.0 **** -0.24
11602 H 6.008194135835311 57.17968000448559 105.20930114435237 H 0.0 **** 0.06
11603 H 7.457119065646907 56.411079671883385 104.51773222273579 H 0.0 **** 0.06
11604 H 7.627762064485182 57.73648907534387 105.69477914499939 H 0.0 **** 0.06
11605 H 7.0242703633653605 58.074209932553146 104.05438653741118 H 0.0 **** 0.06
11606 C 126.98278728704594 153.55728106425204 153.82103473038282 C 0.0 **** -0.24
11607 H 125.95009615071217 153.4379900453691 153.49289929828146 H 0.0 **** 0.06
11608 H 127.5761438891881 153.97626827130586 153.0080428107889 H 0.0 **** 0.06
11609 H 127.38881396153462 152.58664756620664 154.10596830000367 H 0.0 **** 0.06
11610 H 127.01487695428335 154.23033084725452 154.67746009827692 H 0.0 **** 0.06
11611 C 104.62401841684127 45.35818578002994 115.82498934305838 C 0.0 **** -0.24
11612 H 105.5317139770992 45.12284112148075 115.27047711621401 H 0.0 **** 0.06
11613 H 103.96260313512292 44.491084273138654 115.82484337709727 H 0.0 **** 0.06
11614 H 104.11848125234496 46.20055660031903 115.35267825369525 H 0.0 **** 0.06
11615 H 104.88218195510768 45.618400981228035 116.85107257388614 H 0.0 **** 0.06
11616 C 9.612390650853627 87.34119056128864 16.249809990614267 C 0.0 **** -0.24
11617 H 10.027978860925145 87.2679991154031 17.254390307546032 H 0.0 **** 0.06
11618 H 8.69447350343961 86.75505154120907 16.193158607458543 H 0.0 **** 0.06
11619 H 10.33447838845828 86.95703265325339 15.528615000295702 H 0.0 **** 0.06
11620 H 9.39178747584441 88.38450344011687 16.021573943123315 H 0.0 **** 0.06
11621 C 87.25224043615509 16.945647949501733 118.70335317038578 C 0.0 **** -0.24
11622 H 87.75413663398277 16.178271750213923 119.29241102042266 H 0.0 **** 0.06
11623 H 86.33558198303172 16.53663858753947 118.27785719977189 H 0.0 **** 0.06
11624 H 87.911211599541 17.27470367841525 117.9002849917197 H 0.0 **** 0.06
11625 H 87.00907448532733 17.793403883929585 119.34371429886346 H 0.0 **** 0.06
11626 C 150.3686176752767 28.47609982745189 14.52041020480241 C 0.0 **** -0.24
11627 H 150.5182567936556 29.237523138012364 13.753673016704838 H 0.0 **** 0.06
11628 H 149.74176008995892 28.8802503320789 15.31501394922212 H 0.0 **** 0.06
11629 H 151.33440728137919 28.181979761547325 14.9316254958919 H 0.0 **** 0.06
11630 H 149.88229746128565 27.606763393730603 14.078254135312804 H 0.0 **** 0.06
11631 C 48.789057026570774 79.92320360400191 37.3311353316532 C 0.0 **** -0.24
11632 H 49.549035980747036 79.14447918447883 37.400600951161636 H 0.0 **** 0.06
11633 H 48.77711484104185 80.32956100006749 36.319515219646405 H 0.0 **** 0.06
11634 H 49.019859333565876 80.71951694139409 38.03992768164386 H 0.0 **** 0.06
11635 H 47.81275993233517 79.50032078106796 37.56513586344147 H 0.0 **** 0.06
11636 C 20.817826408326113 138.7015188317606 32.601124058690544 C 0.0 **** -0.24
11637 H 21.354816311202796 139.44663918011565 33.18816042698235 H 0.0 **** 0.06
11638 H 20.713613131688305 137.7860739714189 33.183668898178766 H 0.0 **** 0.06
11639 H 21.372793752506226 138.48921203035013 31.68705662825309 H 0.0 **** 0.06
11640 H 19.83008243790698 139.08415014515742 32.34561028134772 H 0.0 **** 0.06
11641 C 51.426622517027496 121.22601109585037 48.424819725729094 C 0.0 **** -0.24
11642 H 51.24854992915601 120.15365420235742 48.50556025805656 H 0.0 **** 0.06
11643 H 52.46174621877091 121.44263115090803 48.687811824444566 H 0.0 **** 0.06
11644 H 50.75986098310513 121.75610267419424 49.10583308480227 H 0.0 **** 0.06
11645 H 51.23517602320074 121.54971179787066 47.40249872044558 H 0.0 **** 0.06
11646 C 116.64788571650303 57.05827592183988 114.87605011498306 C 0.0 **** -0.24
11647 H 115.8956611418867 56.703029740292095 114.17239856859584 H 0.0 **** 0.06
11648 H 117.03941953307805 58.016423819149765 114.53633696446735 H 0.0 **** 0.06
11649 H 117.46022819730501 56.33301575087944 114.93378740785289 H 0.0 **** 0.06
11650 H 116.19703293657602 57.17729014458308 115.86125545881248 H 0.0 **** 0.06
11651 C 46.85218317230735 97.5331525788909 121.06660414142434 C 0.0 **** -0.24
11652 H 46.07981766643957 97.85774394471815 121.76355761405847 H 0.0 **** 0.06
11653 H 47.449141827931356 96.74579980695552 121.52788191868862 H 0.0 **** 0.06
11654 H 47.49523405557619 98.37720235742103 120.81730769666481 H 0.0 **** 0.06
11655 H 46.385391642792854 97.15174273704628 120.15879118244601 H 0.0 **** 0.06
11656 C 88.47986722355611 140.84437905412688 37.62557059645371 C 0.0 **** -0.24
11657 H 88.33884039021615 140.6511354841998 38.68910270522821 H 0.0 **** 0.06
11658 H 87.62826346147881 140.4516085897144 37.070048697955656 H 0.0 **** 0.06
11659 H 89.39305713269806 140.3557397630309 37.285645572797534 H 0.0 **** 0.06
11660 H 88.55890636189794 141.91914461198007 37.459899189179964 H 0.0 **** 0.06
11661 C 163.19214620042774 86.32411252493824 22.502744906900148 C 0.0 **** -0.24
11662 H 163.34303190718205 87.37476598151187 22.753422072057674 H 0.0 **** 0.06
11663 H 162.44607696897188 86.24318578894503 21.7127052061565 H 0.0 **** 0.06
11664 H 162.84767269239177 85.7862939496614 23.38563354531061 H 0.0 **** 0.06
11665 H 164.13352243292405 85.89503322489713 22.15942445893222 H 0.0 **** 0.06
11666 C 97.97356303424124 162.8489672707396 62.13297467486848 C 0.0 **** -0.24
11667 H 98.14584884121416 162.4935067380212 63.14894101228214 H 0.0 **** 0.06
11668 H 98.26329635917244 163.89774585179129 62.06127879591111 H 0.0 **** 0.06
11669 H 96.91682801317049 162.7457576169561 61.88716776259318 H 0.0 **** 0.06
11670 H 98.56832531740812 162.25931790226247 61.435847990133055 H 0.0 **** 0.06
11671 C 110.52660814241239 167.36970460041798 49.42240081863493 C 0.0 **** -0.24
11672 H 110.36364186544819 166.6477544398975 50.22205644366559 H 0.0 **** 0.06
11673 H 111.55170949750703 167.74080650427237 49.4719271222648 H 0.0 **** 0.06
11674 H 109.83269111986493 168.20231735772757 49.53787526217276 H 0.0 **** 0.06
11675 H 110.36043351549256 166.88819383142763 48.458616317531266 H 0.0 **** 0.06
11676 C 125.72047652236387 143.63221667231159 75.18926069127784 C 0.0 **** -0.24
11677 H 124.91771959642568 143.47240928287079 75.90954544033424 H 0.0 **** 0.06
11678 H 126.66150226363862 143.77829136170362 75.7202210885702 H 0.0 **** 0.06
11679 H 125.50065652255608 144.51586760895697 74.58954209479177 H 0.0 **** 0.06
11680 H 125.80202770683496 142.7622984357149 74.53773414141511 H 0.0 **** 0.06
11681 C 96.92056685708178 163.3054988745853 109.24919550750127 C 0.0 **** -0.24
11682 H 97.71462528061923 164.04405118931209 109.13089953993352 H 0.0 **** 0.06
11683 H 96.3140442917144 163.27673235414588 108.34343445849993 H 0.0 **** 0.06
11684 H 96.29402110919477 163.57909244693082 110.09852535317737 H 0.0 **** 0.06
11685 H 97.36118378505793 162.32440659879808 109.4243549594971 H 0.0 **** 0.06
11686 C 52.98662374273624 166.9382858738376 57.055385678646545 C 0.0 **** -0.24
11687 H 52.00023574091759 167.38480372013663 56.93381396993921 H 0.0 **** 0.06
11688 H 53.40185031790443 166.7004837763945 56.075410029654336 H 0.0 **** 0.06
11689 H 52.90134774456274 166.02474304799398 57.64561423874203 H 0.0 **** 0.06
11690 H 53.64230254821527 167.64181357530626 57.568358640574075 H 0.0 **** 0.06
11691 C 51.60086845886288 56.07805554235084 105.74887308013075 C 0.0 **** -0.24
11692 H 50.835062324402514 56.52575520317946 105.11390204265552 H 0.0 **** 0.06
11693 H 51.12308909904907 55.525377685157466 106.55760557320417 H 0.0 **** 0.06
11694 H 52.23051058846022 56.86408799173893 106.16590421230188 H 0.0 **** 0.06
11695 H 52.212437089884745 55.39880488616137 105.15523301042623 H 0.0 **** 0.06
11696 C 97.97900970814766 92.27033019384916 102.41814655874225 C 0.0 **** -0.24
11697 H 97.7490381120887 92.30977686362388 103.483525481291 H 0.0 **** 0.06
11698 H 98.89492011531928 92.82996885405927 102.22391749601695 H 0.0 **** 0.06
11699 H 97.15721221547221 92.7085413668292 101.85267064667175 H 0.0 **** 0.06
11700 H 98.1168721594359 91.23243604298229 102.11484495227808 H 0.0 **** 0.06
11701 C 51.65600158074308 138.21062512022093 95.96587823475556 C 0.0 **** -0.24
11702 H 50.75532671432043 137.64733936864852 95.72520400394137 H 0.0 **** 0.06
11703 H 52.51554058906308 137.74641861684137 95.48008788755067 H 0.0 **** 0.06
11704 H 51.80636500263668 138.21148037570742 97.04554823079673 H 0.0 **** 0.06
11705 H 51.549335567128125 139.23606336466693 95.61263194432706 H 0.0 **** 0.06
11706 C 58.495845008441165 146.68995957408654 101.69383573857704 C 0.0 **** -0.24
11707 H 57.880941469971134 147.02667604553847 102.52797590552325 H 0.0 **** 0.06
11708 H 58.20466205241132 145.67779827722762 101.41271977433291 H 0.0 **** 0.06
11709 H 59.54527716889805 146.6970484056436 101.9902410440913 H 0.0 **** 0.06
11710 H 58.35377154662939 147.35848511625295 100.84556934418873 H 0.0 **** 0.06
11711 C 14.178880879709794 143.36323893388152 139.66110464863775 C 0.0 **** -0.24
11712 H 14.82186128679561 144.03624893518935 139.09249849029732 H 0.0 **** 0.06
11713 H 13.233750296031154 143.86192239823293 139.8782893529582 H 0.0 **** 0.06
11714 H 14.671753520999353 143.0934240880363 140.59488175329304 H 0.0 **** 0.06
11715 H 13.98894516952322 142.46245625756342 139.0760694128515 H 0.0 **** 0.06
11716 C 163.4745435302549 42.482898896622956 115.89217320179225 C 0.0 **** -0.24
11717 H 163.17729414223118 41.523156844032016 115.4687039609023 H 0.0 **** 0.06
11718 H 163.922240749241 42.32276872171471 116.87368007864049 H 0.0 **** 0.06
11719 H 162.59747524723446 43.12208597484842 115.99159794501011 H 0.0 **** 0.06
11720 H 164.20057531171346 42.96052558720413 115.23416348664273 H 0.0 **** 0.06
11721 C 69.2701290423321 34.63626183930495 100.4554815472348 C 0.0 **** -0.24
11722 H 70.22058069411469 34.84640550834234 100.94589308743573 H 0.0 **** 0.06
11723 H 69.45598751845729 34.18154862967546 99.48185546857007 H 0.0 **** 0.06
11724 H 68.71577919116099 35.564835975737935 100.32304109832083 H 0.0 **** 0.06
11725 H 68.68775704225266 33.9500963097025 101.07221403948898 H 0.0 **** 0.06
11726 C 30.925211436417484 48.45560915813864 99.13049814823569 C 0.0 **** -0.24
11727 H 29.900138254925565 48.532377020257044 98.76672091134367 H 0.0 **** 0.06
11728 H 31.19080473319798 47.403472434057946 99.24615184642698 H 0.0 **** 0.06
11729 H 31.00819806190718 48.95946620222969 100.09305903525319 H 0.0 **** 0.06
11730 H 31.600473706881246 48.92371755955574 98.41511116095364 H 0.0 **** 0.06
11731 C 41.496454450413054 21.122849655183586 37.786961470479 C 0.0 **** -0.24
11732 H 41.95381558286351 20.182470264242056 38.09379948601456 H 0.0 **** 0.06
11733 H 41.914784447943006 21.434667345116907 36.8302253983705 H 0.0 **** 0.06
11734 H 41.697603217056994 21.886750272644576 38.53816797425023 H 0.0 **** 0.06
11735 H 40.41902507425041 20.987705306586577 37.686437041874385 H 0.0 **** 0.06
11736 C 139.41819526192643 26.617900253586747 13.490910121293972 C 0.0 **** -0.24
11737 H 140.44558151504572 26.633767229966097 13.856105877049103 H 0.0 **** 0.06
11738 H 139.41928130455253 26.68369045656155 12.402727386170362 H 0.0 **** 0.06
11739 H 138.87226632487534 27.464664734434933 13.906969847928167 H 0.0 **** 0.06
11740 H 138.9383446966831 25.68905371268111 13.799440065245484 H 0.0 **** 0.06
11741 C 56.203946850321145 118.16319242207956 14.053151803663809 C 0.0 **** -0.24
11742 H 56.34222067460985 119.2359688405202 13.918863726115774 H 0.0 **** 0.06
11743 H 56.81738650953446 117.81952812071967 14.887080977118103 H 0.0 **** 0.06
11744 H 56.503559847807736 117.6421301772275 13.143267523454028 H 0.0 **** 0.06
11745 H 55.15505992285033 117.95536320390013 14.263402604800945 H 0.0 **** 0.06
11746 C 167.4973231673153 164.75066187555157 116.96231728446634 C 0.0 **** -0.24
11747 H 167.8002886971454 165.40078680542044 117.78302895488517 H 0.0 **** 0.06
11748 H 168.32500384982285 164.0949465218647 116.69447552113394 H 0.0 **** 0.06
11749 H 167.22112021932804 165.35831802007922 116.10071811980464 H 0.0 **** 0.06
11750 H 166.642428901992 164.14948854205727 117.27103007655589 H 0.0 **** 0.06
11751 C 17.1044885165482 124.06944371011554 155.77335313915333 C 0.0 **** -0.24
11752 H 16.522249356903615 124.83620762926358 156.28463862201318 H 0.0 **** 0.06
11753 H 16.432550342742616 123.40883599448381 155.2260765158157 H 0.0 **** 0.06
11754 H 17.665876619847523 123.49098674052755 156.5077863535434 H 0.0 **** 0.06
11755 H 17.796209178572724 124.5425503227354 155.07740285113803 H 0.0 **** 0.06
11756 C 75.66585656962984 26.07433284278926 119.48362838298323 C 0.0 **** -0.24
11757 H 76.46029972495774 26.755255499631062 119.17806235877546 H 0.0 **** 0.06
11758 H 74.72904670485308 26.374035874875972 119.01316204670874 H 0.0 **** 0.06
11759 H 75.55519219817158 26.108799226814995 120.56757886991568 H 0.0 **** 0.06
11760 H 75.91891619180097 25.059833148013013 119.17651542820568 H 0.0 **** 0.06
11761 C 53.68943756398755 15.220343357514075 121.103509373098 C 0.0 **** -0.24
11762 H 52.645638645755355 14.938766265544011 120.96456929717655 H 0.0 **** 0.06
11763 H 54.27559214301826 14.335294241379081 121.3494220320859 H 0.0 **** 0.06
11764 H 53.764621650185134 15.944585585203654 121.91513228826295 H 0.0 **** 0.06
11765 H 54.07066921511664 15.6641857071724 120.18374604086958 H 0.0 **** 0.06
11766 C 95.58771102877458 154.78600670137803 40.23239030100616 C 0.0 **** -0.24
11767 H 96.10803069361239 155.74329460151236 40.20236521565084 H 0.0 **** 0.06
11768 H 95.34210978445205 154.47422069602598 39.21756978445916 H 0.0 **** 0.06
11769 H 94.67136720732464 154.889091624231 40.813080983002465 H 0.0 **** 0.06
11770 H 96.23018232239016 154.03758446318656 40.697666575023476 H 0.0 **** 0.06
11771 C 102.1444159414651 128.57135720646585 130.5503978850479 C 0.0 **** -0.24
11772 H 102.33637395324865 129.32871643925242 131.31004864868856 H 0.0 **** 0.06
11773 H 103.09032201941682 128.23300123144426 130.1274663177133 H 0.0 **** 0.06
11774 H 101.52473226657762 128.99712300074248 129.7620389693391 H 0.0 **** 0.06
11775 H 101.62634025690201 127.72635619436923 131.00425917276146 H 0.0 **** 0.06
11776 C 53.9861814714924 110.23945142247254 156.65023590607996 C 0.0 **** -0.24
11777 H 53.32853059024691 109.38996853240567 156.4675933436016 H 0.0 **** 0.06
11778 H 55.02471283120775 109.91096957670851 156.60308197947325 H 0.0 **** 0.06
11779 H 53.77993305388807 110.65414048995797 157.63697890928256 H 0.0 **** 0.06
11780 H 53.811718644866716 111.00314116276556 155.89194776606126 H 0.0 **** 0.06
11781 C 44.41334062355506 66.1224090377292 148.47156959307932 C 0.0 **** -0.24
11782 H 43.48986611924316 65.68252889211735 148.09743802353012 H 0.0 **** 0.06
11783 H 45.029485586080156 65.34508508547181 148.92452330974908 H 0.0 **** 0.06
11784 H 44.178254446630575 66.88090205032039 149.21777801221117 H 0.0 **** 0.06
11785 H 44.957091870194816 66.58199298630933 147.64586481721273 H 0.0 **** 0.06
11786 C 123.39815209718384 141.17222510771694 51.37190746613916 C 0.0 **** -0.24
11787 H 123.1485840756232 142.0257359547047 52.00194652116802 H 0.0 **** 0.06
11788 H 124.17572755058384 141.45971306347047 50.66366224277381 H 0.0 **** 0.06
11789 H 122.51135743185708 140.85016450446028 50.82718337132263 H 0.0 **** 0.06
11790 H 123.75930560898405 140.35388970608068 51.99503145407607 H 0.0 **** 0.06
11791 C 0.09821782916336019 166.78919291104293 74.55614879434722 C 0.0 **** -0.24
11792 H -0.36748208146526906 167.098958028848 75.49191284619991 H 0.0 **** 0.06
11793 H 0.8913221875898074 167.49023334392723 74.29647406019296 H 0.0 **** 0.06
11794 H -0.6511377724080774 166.7765088064581 73.76446546699316 H 0.0 **** 0.06
11795 H 0.5189506354021844 165.78998488504914 74.67289826285378 H 0.0 **** 0.06
11796 C 122.62991665187931 114.41054456151994 92.947019700092 C 0.0 **** -0.24
11797 H 122.5968743819518 114.53625752491212 94.02968431618814 H 0.0 **** 0.06
11798 H 123.25275637078323 115.19101000538524 92.50936278608248 H 0.0 **** 0.06
11799 H 121.61940845706556 114.4811496190548 92.54316288130636 H 0.0 **** 0.06
11800 H 123.04929647235977 113.43278832463352 92.70816720222516 H 0.0 **** 0.06
11801 C 6.199235226775947 49.22286743091706 99.75304692769501 C 0.0 **** -0.24
11802 H 6.068137195227408 49.397060890344534 98.68536527463297 H 0.0 **** 0.06
11803 H 7.005105545493052 49.85479894062722 100.12679255131678 H 0.0 **** 0.06
11804 H 6.450308237389379 48.17613200806035 99.9223084462395 H 0.0 **** 0.06
11805 H 5.274738532077414 49.464461151156115 100.27725825345476 H 0.0 **** 0.06
11806 C 22.628825789622283 89.37391974995845 47.28316344764822 C 0.0 **** -0.24
11807 H 22.47270318148594 88.34735167707633 47.6137733260458 H 0.0 **** 0.06
11808 H 23.56720756547429 89.74846243394066 47.6912217581161 H 0.0 **** 0.06
11809 H 21.804629188101188 89.9969040552035 47.63164977940154 H 0.0 **** 0.06
11810 H 22.669093223981776 89.40169846645102 46.19363873498759 H 0.0 **** 0.06
11811 C 96.1681749826067 128.4502472169236 39.66424871726551 C 0.0 **** -0.24
11812 H 95.3425413210808 128.15653466485438 40.311821999615745 H 0.0 **** 0.06
11813 H 96.9367061569381 128.94691047793634 40.25816510758514 H 0.0 **** 0.06
11814 H 95.80272509398037 129.13359006129903 38.89786688425332 H 0.0 **** 0.06
11815 H 96.59136111888296 127.56472359150746 39.190143680964866 H 0.0 **** 0.06
11816 C 132.35456698987988 0.5150216965803907 103.30418511126175 C 0.0 **** -0.24
11817 H 132.8398063357826 -0.4599955914827092 103.26899662901488 H 0.0 **** 0.06
11818 H 131.51040692525365 0.47668289603961966 103.9939105305541 H 0.0 **** 0.06
11819 H 131.99897077893027 0.7801501892274132 102.30911306921641 H 0.0 **** 0.06
11820 H 133.06929611545894 1.264146079079012 103.64618678729352 H 0.0 **** 0.06
11821 C 130.49428728708227 131.88220095364946 74.31508127707373 C 0.0 **** -0.24
11822 H 130.57780688118663 132.8306305987684 73.78449681799819 H 0.0 **** 0.06
11823 H 129.7981518604039 131.99147333360162 75.14698704935701 H 0.0 **** 0.06
11824 H 131.4731325618855 131.59080839204182 74.69523844602074 H 0.0 **** 0.06
11825 H 130.12654059652226 131.11584256114486 73.63196093526886 H 0.0 **** 0.06
11826 C 73.441515429678 19.820748273814722 10.558036878958262 C 0.0 **** -0.24
11827 H 74.01122520602836 20.071461660006264 9.663067738742996 H 0.0 **** 0.06
11828 H 73.43604803289271 20.673592716679686 11.236190715123996 H 0.0 **** 0.06
11829 H 73.9009600833377 18.965392377117496 11.05268631607413 H 0.0 **** 0.06
11830 H 72.41756706198596 19.571273909948438 10.278382646439894 H 0.0 **** 0.06
11831 C 5.303774186205722 152.49778963048067 137.76991020148057 C 0.0 **** -0.24
11832 H 6.300490919404595 152.81033497574882 138.081758487723 H 0.0 **** 0.06
11833 H 4.7815242581067565 152.0523141315438 138.61777919641293 H 0.0 **** 0.06
11834 H 5.387532494039661 151.76422270057245 136.96818563248803 H 0.0 **** 0.06
11835 H 4.746147891187292 153.3639355557004 137.41379318027487 H 0.0 **** 0.06
11836 C 56.3262388187882 51.93508451442982 32.30401353907678 C 0.0 **** -0.24
11837 H 55.874223043859274 51.915822617504915 33.29595351629939 H 0.0 **** 0.06
11838 H 56.94210240337557 51.045792802175995 32.16756025504844 H 0.0 **** 0.06
11839 H 56.9463296719135 52.825645735536085 32.20437311231842 H 0.0 **** 0.06
11840 H 55.54016261125288 51.953141507766645 31.54882062419631 H 0.0 **** 0.06
11841 C 85.44400257573545 134.010338057363 70.14019873068754 C 0.0 **** -0.24
11842 H 84.87216025814666 134.61652362764528 69.43640213331892 H 0.0 **** 0.06
11843 H 86.21459742551082 134.62505134382764 70.60503561439769 H 0.0 **** 0.06
11844 H 85.91127004768367 133.18145359500522 69.60872263919086 H 0.0 **** 0.06
11845 H 84.77712964017945 133.62081510375705 70.90861821789521 H 0.0 **** 0.06
11846 C 109.80166657507917 63.21124984824655 76.90982351988929 C 0.0 **** -0.24
11847 H 110.61180973839288 63.27253436341728 77.636471610942 H 0.0 **** 0.06
11848 H 109.8275002215317 62.23755058797876 76.41904495403323 H 0.0 **** 0.06
11849 H 109.92200171978857 63.99781848005681 76.16505280451231 H 0.0 **** 0.06
11850 H 108.84637338369689 63.335986109635755 77.42037712956375 H 0.0 **** 0.06
11851 C 110.82737135906589 23.775898582021817 88.66559917901624 C 0.0 **** -0.24
11852 H 110.49627530863904 24.649369063597995 88.10406208981682 H 0.0 **** 0.06
11853 H 111.75948827866276 24.00844221666341 89.18159503271076 H 0.0 **** 0.06
11854 H 110.98940843083491 22.943266284535248 87.98045565145246 H 0.0 **** 0.06
11855 H 110.06626554643782 23.50274388020062 89.39521728720821 H 0.0 **** 0.06
11856 C 0.9592623642649301 2.0129092460266804 123.6781591686333 C 0.0 **** -0.24
11857 H 1.9373535401056188 1.8060970130503051 124.11269402487667 H 0.0 **** 0.06
11858 H 0.5253967642009911 2.888334281849467 124.16155118098644 H 0.0 **** 0.06
11859 H 0.3059415166509325 1.153250718155192 123.82889829234875 H 0.0 **** 0.06
11860 H 1.0696159133276524 2.2034219041040046 122.61126312482719 H 0.0 **** 0.06
11861 C 131.94692145706284 1.7980684329768977 161.11539391299777 C 0.0 **** -0.24
11862 H 132.62531197119148 2.5362101995377273 160.68860567155568 H 0.0 **** 0.06
11863 H 131.89311474425227 0.9306020501700658 160.45711880743744 H 0.0 **** 0.06
11864 H 130.95435830525827 2.234878238500812 161.22272867816088 H 0.0 **** 0.06
11865 H 132.31641154056456 1.4889374703457676 162.09321870027313 H 0.0 **** 0.06
11866 C 120.87378873611524 4.232838210511154 8.141776108460078 C 0.0 **** -0.24
11867 H 121.7804119737583 4.430297002400202 8.71497987243339 H 0.0 **** 0.06
11868 H 120.43493136719098 5.176990356848734 7.820019828354987 H 0.0 **** 0.06
11869 H 120.16003797275357 3.694279039819726 8.765736101012948 H 0.0 **** 0.06
11870 H 121.12169991397104 3.6290092990682012 7.26895432103467 H 0.0 **** 0.06
11871 C 122.6288234907748 3.5965035856957854 103.30243864905333 C 0.0 **** -0.24
11872 H 122.70231905581619 4.602241225949115 102.88638884540242 H 0.0 **** 0.06
11873 H 123.50672429363053 3.0187424950457284 103.0126050775157 H 0.0 **** 0.06
11874 H 121.7312307191307 3.110955385553524 102.91977255444112 H 0.0 **** 0.06
11875 H 122.57508308896931 3.6567831446423895 104.38935609010517 H 0.0 **** 0.06
11876 C 66.04042819053552 60.716848027292315 98.94048599635343 C 0.0 **** -0.24
11877 H 66.21744226478569 61.49828428781086 98.20197225032044 H 0.0 **** 0.06
11878 H 65.61314584726756 61.15744447460854 99.8415052895636 H 0.0 **** 0.06
11879 H 66.9849526775323 60.229712875129565 99.18720057487639 H 0.0 **** 0.06
11880 H 65.34800410412981 59.98089572687094 98.53199453180252 H 0.0 **** 0.06
11881 C 146.94619626508575 166.6246353789514 103.98139156711261 C 0.0 **** -0.24
11882 H 147.64852954841865 165.96652561832647 104.49214851849862 H 0.0 **** 0.06
11883 H 146.64983965248825 166.1746894025475 103.0337631766483 H 0.0 **** 0.06
11884 H 147.42115058105668 167.58761157577354 103.79263394694459 H 0.0 **** 0.06
11885 H 146.064701906809 166.77020019140784 104.6054562711841 H 0.0 **** 0.06
11886 C 55.7431241144149 110.38106827498495 94.96208646297279 C 0.0 **** -0.24
11887 H 56.71087890524021 110.51232122037516 95.44691069352854 H 0.0 **** 0.06
11888 H 55.8780317557991 109.85245837042731 94.01830116467201 H 0.0 **** 0.06
11889 H 55.296951205511164 111.3573142183946 94.77188713612446 H 0.0 **** 0.06
11890 H 55.08791542027136 109.8025114843525 95.61304942898562 H 0.0 **** 0.06
11891 C 70.98744150847408 143.29298664240645 163.38365538547947 C 0.0 **** -0.24
11892 H 71.34387569203996 144.0906066070871 162.7314343611123 H 0.0 **** 0.06
11893 H 71.76933956601627 143.0285837782455 164.09463407761632 H 0.0 **** 0.06
11894 H 70.7304012268123 142.42013845695965 162.78326840024118 H 0.0 **** 0.06
11895 H 70.10444879032636 143.63354531268865 163.92416794652496 H 0.0 **** 0.06
11896 C 152.07046748344897 153.22273220919115 74.58220489307685 C 0.0 **** -0.24
11897 H 151.08248695105567 153.14422741122118 75.03490968033067 H 0.0 **** 0.06
11898 H 152.3478475138495 152.26218197395863 74.14661244154014 H 0.0 **** 0.06
11899 H 152.79930905588392 153.50057805543565 75.3443537406789 H 0.0 **** 0.06
11900 H 152.05369355476887 153.98371158696497 73.80205221293531 H 0.0 **** 0.06
11901 C 66.72289658735424 141.20752672094946 136.95073246281214 C 0.0 **** -0.24
11902 H 65.99717014225924 142.00617946952212 136.79173200151394 H 0.0 **** 0.06
11903 H 67.35210445403601 141.1087391063367 136.06603214077674 H 0.0 **** 0.06
11904 H 66.19607379894201 140.26991418410242 137.13025039301783 H 0.0 **** 0.06
11905 H 67.34316628414683 141.44681855851206 137.81449116982742 H 0.0 **** 0.06
11906 C 129.71532835108422 95.36699265927876 106.07094233806617 C 0.0 **** -0.24
11907 H 130.53479936219628 95.0871823299255 105.40923196716892 H 0.0 **** 0.06
11908 H 128.8713297392294 95.71642036152372 105.4758861886848 H 0.0 **** 0.06
11909 H 130.0434961878607 96.16269868458181 106.73856268984812 H 0.0 **** 0.06
11910 H 129.4120446669015 94.50094366037877 106.65892814874829 H 0.0 **** 0.06
11911 C 132.63674697875626 19.01229270084451 160.46356444236892 C 0.0 **** -0.24
11912 H 132.30206135595066 18.79048631221366 161.47684260776796 H 0.0 **** 0.06
11913 H 131.9527790319763 18.55556623047994 159.74704437159656 H 0.0 **** 0.06
11914 H 133.63855373635462 18.60970351065771 160.31680162303033 H 0.0 **** 0.06
11915 H 132.6529410942267 20.091333239914206 160.31406053513678 H 0.0 **** 0.06
11916 C 134.01205057310722 158.30660612030718 68.30521153084945 C 0.0 **** -0.24
11917 H 133.1041648615884 158.10472517523579 67.73638834481068 H 0.0 **** 0.06
11918 H 133.7874697070157 158.27706024457459 69.37092332653668 H 0.0 **** 0.06
11919 H 134.3944347378128 159.29289895672363 68.04149200439647 H 0.0 **** 0.06
11920 H 134.76287617940037 157.5518755005477 68.07084687774233 H 0.0 **** 0.06
11921 C 69.02062310177233 157.94919835489918 170.27268183405243 C 0.0 **** -0.24
11922 H 68.72515480770114 158.42025505032797 169.335158360677 H 0.0 **** 0.06
11923 H 69.5528872809476 158.6726648541617 170.89050807325623 H 0.0 **** 0.06
11924 H 69.67337861214989 157.10172473926906 170.06231094204946 H 0.0 **** 0.06
11925 H 68.13229816529272 157.6028894735181 170.80103318856996 H 0.0 **** 0.06
11926 C 171.07761105733115 105.12088280104146 18.80115686940553 C 0.0 **** -0.24
11927 H 171.24357456627092 106.18400358936026 18.977671773022422 H 0.0 **** 0.06
11928 H 171.1561764454201 104.57945308988386 19.74427910544992 H 0.0 **** 0.06
11929 H 171.8258408290408 104.74708535929798 18.102671473578255 H 0.0 **** 0.06
11930 H 170.0819634114094 104.97462219685494 18.380998782963616 H 0.0 **** 0.06
11931 C 120.39754278973004 88.92989684106965 117.70588334013524 C 0.0 **** -0.24
11932 H 120.93007847987093 88.5840579078464 118.59209063465067 H 0.0 **** 0.06
11933 H 121.08146938999516 89.4913170222481 117.06856473916372 H 0.0 **** 0.06
11934 H 119.5702857102118 89.57125631165937 118.00678014426165 H 0.0 **** 0.06
11935 H 120.01144968792369 88.07120292211378 117.15658919620756 H 0.0 **** 0.06
11936 C 68.17554183610292 150.28710742749578 80.28805099287159 C 0.0 **** -0.24
11937 H 69.2255443922483 150.46869002889133 80.05808451002903 H 0.0 **** 0.06
11938 H 68.05817363128153 150.14917404247532 81.36311995995587 H 0.0 **** 0.06
11939 H 67.83916003384616 149.3908914378782 79.76739722166495 H 0.0 **** 0.06
11940 H 67.57988128819477 151.14095220386622 79.96347461427148 H 0.0 **** 0.06
11941 C 7.335532977676145 19.560005612164574 109.76972707861393 C 0.0 **** -0.24
11942 H 6.871950590376926 18.997798793264884 110.58037376419614 H 0.0 **** 0.06
11943 H 7.353932616424245 18.947144985479852 108.86778332875514 H 0.0 **** 0.06
11944 H 8.354576792701344 19.826021140971875 110.04925633562704 H 0.0 **** 0.06
11945 H 6.761253085123656 20.466095615705562 109.58172271494846 H 0.0 **** 0.06
11946 C 58.59578913599725 40.44807044314649 122.50446562123432 C 0.0 **** -0.24
11947 H 59.514786293388084 40.43537817647325 121.9180584847542 H 0.0 **** 0.06
11948 H 58.15020674721276 41.44198291486214 122.45743868461457 H 0.0 **** 0.06
11949 H 58.82341878472147 40.19891568468671 123.54058087328988 H 0.0 **** 0.06
11950 H 57.89710563811923 39.71555953374059 122.09972825611712 H 0.0 **** 0.06
11951 C 74.85453862321906 171.96796079249256 80.19156616665302 C 0.0 **** -0.24
11952 H 75.75772010305535 172.0209559992421 80.79987934354712 H 0.0 **** 0.06
11953 H 74.60405055032736 170.9226040354583 80.00518692712906 H 0.0 **** 0.06
11954 H 75.02559874979076 172.47579611581762 79.24266475571156 H 0.0 **** 0.06
11955 H 74.03261786901028 172.4501087633734 80.71952616093063 H 0.0 **** 0.06
11956 C 44.12687208131943 163.43766570156453 143.10903462871272 C 0.0 **** -0.24
11957 H 43.18735130981344 163.45714094086185 142.55636055491817 H 0.0 **** 0.06
11958 H 44.52803230450277 162.42466987148103 143.1087512343222 H 0.0 **** 0.06
11959 H 43.9504726949186 163.75834281813366 144.13607973342388 H 0.0 **** 0.06
11960 H 44.84033308958634 164.11227904151175 142.63537185100645 H 0.0 **** 0.06
11961 C 87.38289773907479 79.62089085038652 106.06356704396967 C 0.0 **** -0.24
11962 H 87.58286240226471 80.42994184837283 105.36085956002944 H 0.0 **** 0.06
11963 H 86.95000807819179 78.77520397594833 105.5288489424305 H 0.0 **** 0.06
11964 H 86.68279368324352 79.96606044331232 106.82465866827988 H 0.0 **** 0.06
11965 H 88.31395009368816 79.31336501737815 106.53788182616665 H 0.0 **** 0.06
11966 C 2.3549706799870975 132.0730984655948 165.89166458767116 C 0.0 **** -0.24
11967 H 3.292849355861428 131.65255310647564 166.25562117663893 H 0.0 **** 0.06
11968 H 2.119043333711467 132.97489184718796 166.4558863039311 H 0.0 **** 0.06
11969 H 1.5559348573586718 131.34347181892485 166.020431337496 H 0.0 **** 0.06
11970 H 2.453971291144285 132.32042105490225 164.8342575571911 H 0.0 **** 0.06
11971 C 6.447558294569561 35.40546786874248 141.84598206908015 C 0.0 **** -0.24
11972 H 6.679216736104259 34.52913800171898 141.24008559840235 H 0.0 **** 0.06
11973 H 5.771976769842567 36.05901295205817 141.29486448718959 H 0.0 **** 0.06
11974 H 7.368906031145443 35.94264972713481 142.07321149415634 H 0.0 **** 0.06
11975 H 5.972635978398586 35.08907043333315 142.77411223939302 H 0.0 **** 0.06
11976 C 17.409280902872382 117.34815962124895 37.40439585531607 C 0.0 **** -0.24
11977 H 16.537923689347778 117.7100444812348 37.95023295669179 H 0.0 **** 0.06
11978 H 17.093638659145647 116.95050344935012 36.43921879272443 H 0.0 **** 0.06
11979 H 17.89654050631041 116.56074949579656 37.97914410366971 H 0.0 **** 0.06
11980 H 18.10826975885496 118.17040572210036 37.2482384328589 H 0.0 **** 0.06
11981 C 83.69059594195092 21.498036252823468 73.88717132557167 C 0.0 **** -0.24
11982 H 83.3160075938107 20.762398991587425 73.17455950443501 H 0.0 **** 0.06
11983 H 84.52301793586557 22.043373600578043 73.44247481623181 H 0.0 **** 0.06
11984 H 84.0304274879622 20.988574304773906 74.78911159015351 H 0.0 **** 0.06
11985 H 82.89371344444794 22.19556329172888 74.14316638834364 H 0.0 **** 0.06
11986 C 54.31611061394267 71.55144411201428 29.26747927100638 C 0.0 **** -0.24
11987 H 54.858839568602406 71.837366015523 28.366117994824037 H 0.0 **** 0.06
11988 H 54.274310812147974 72.39973482366554 29.950723613772197 H 0.0 **** 0.06
11989 H 54.82761294041296 70.72010467771372 29.751480582673793 H 0.0 **** 0.06
11990 H 53.302647070364685 71.24950687585965 29.000565847224607 H 0.0 **** 0.06
11991 C 17.861996313788673 75.35925939484072 167.17773529220088 C 0.0 **** -0.24
11992 H 18.920169443078485 75.24572543225513 166.9436544651741 H 0.0 **** 0.06
11993 H 17.68567981325407 75.06376965097023 168.21187284623053 H 0.0 **** 0.06
11994 H 17.27247292416707 74.7277106821669 166.51284312652143 H 0.0 **** 0.06
11995 H 17.570944148798766 76.40163819284057 167.0422609179076 H 0.0 **** 0.06
11996 C 37.892818054344346 155.13410216733044 104.12702489143129 C 0.0 **** -0.24
11997 H 38.11642446869703 156.18049015124575 104.33693574963496 H 0.0 **** 0.06
11998 H 36.858930757691965 155.04425999393024 103.79426729783557 H 0.0 **** 0.06
11999 H 38.037452485405794 154.54308265814583 105.03130139868557 H 0.0 **** 0.06
12000 H 38.560180079347774 154.76998024017988 103.34530412218345 H 0.0 **** 0.06
12001 C 96.43274156756502 96.1988612764213 126.54397585449726 C 0.0 **** -0.24
12002 H 96.98693257935585 96.82604904438949 127.24166918818761 H 0.0 **** 0.06
12003 H 96.74079281175779 96.43115095977785 125.52371453207411 H 0.0 **** 0.06
12004 H 95.36529535829703 96.38777505773504 126.65434041600471 H 0.0 **** 0.06
12005 H 96.64007252410661 95.14926217852275 126.75604856734029 H 0.0 **** 0.06
12006 C 138.16169340441422 160.4815292274426 107.32397609360757 C 0.0 **** -0.24
12007 H 137.90471664599602 159.56918938296434 107.86210817368487 H 0.0 **** 0.06
12008 H 137.90544843150258 160.36424700681823 106.27051863838923 H 0.0 **** 0.06
12009 H 139.23019841795855 160.67106442084116 107.4189423550242 H 0.0 **** 0.06
12010 H 137.6046700445227 161.31967689762888 107.74284796877075 H 0.0 **** 0.06
12011 C 150.11894373148073 107.45775528061526 7.375212424194956 C 0.0 **** -0.24
12012 H 149.24631415639286 106.99807506128334 6.911652402462721 H 0.0 **** 0.06
12013 H 149.86163976533055 107.79597324686549 8.378575489026332 H 0.0 **** 0.06
12014 H 150.44097315871977 108.30986626158622 6.7757216908541125 H 0.0 **** 0.06
12015 H 150.9263266602252 106.72818686401408 7.433012938474974 H 0.0 **** 0.06
12016 C 33.13964733613089 12.9607909368425 107.5795029713857 C 0.0 **** -0.24
12017 H 33.756306329672725 12.562551905626833 108.38531594432914 H 0.0 **** 0.06
12018 H 32.099547259307656 12.679158701366703 107.74493969673014 H 0.0 **** 0.06
12019 H 33.479199271247424 12.553175364082733 106.62728544637153 H 0.0 **** 0.06
12020 H 33.22397413349384 14.046602103627038 107.5604966455306 H 0.0 **** 0.06
12021 C 31.712596496576623 117.52830508117898 132.07875019560035 C 0.0 **** -0.24
12022 H 32.775407563013516 117.76473723117334 132.0227441732422 H 0.0 **** 0.06
12023 H 31.261651208602757 118.08095529076923 132.90360188377736 H 0.0 **** 0.06
12024 H 31.58733210011019 116.45853090931394 132.24558314409006 H 0.0 **** 0.06
12025 H 31.227738028623605 117.80955098322039 131.14388111628233 H 0.0 **** 0.06
12026 C 40.84017936302065 0.5467936645328919 68.68072492779334 C 0.0 **** -0.24
12027 H 39.88845032169834 1.0358641385772955 68.47328075267478 H 0.0 **** 0.06
12028 H 41.60027466908328 0.9269003490701877 67.99797370904096 H 0.0 **** 0.06
12029 H 40.73313857377319 -0.528864641179922 68.54233182391275 H 0.0 **** 0.06
12030 H 41.138202221742546 0.7525944243236893 69.70897811568341 H 0.0 **** 0.06
12031 C 108.52470295832705 101.77947773383653 31.671089775859286 C 0.0 **** -0.24
12032 H 109.35300999479432 101.6278515632315 30.9796325339197 H 0.0 **** 0.06
12033 H 108.17099301984803 102.8082020619936 31.595183582102436 H 0.0 **** 0.06
12034 H 108.86112342699033 101.58467998350682 32.68924952785292 H 0.0 **** 0.06
12035 H 107.71259948973392 101.09629202456199 31.42010081192177 H 0.0 **** 0.06
12036 C 139.0288027242556 143.46388952459355 152.60739414035996 C 0.0 **** -0.24
12037 H 138.35726499174746 143.9952984025125 153.28140664076284 H 0.0 **** 0.06
12038 H 139.43335993677863 144.16123268934606 151.8733143234265 H 0.0 **** 0.06
12039 H 138.4797028947142 142.67457061383956 152.09460061242177 H 0.0 **** 0.06
12040 H 139.84562884764594 143.0253379208455 153.1810715540502 H 0.0 **** 0.06
12041 C 29.737543847484062 127.89282572009853 117.26841338903833 C 0.0 **** -0.24
12042 H 28.77526912669896 128.3098264421506 117.56264271785892 H 0.0 **** 0.06
12043 H 29.65209092266184 127.44296785361226 116.2791809154084 H 0.0 **** 0.06
12044 H 30.039562590196056 127.13357031433034 117.98932050719807 H 0.0 **** 0.06
12045 H 30.48452635659777 128.6861417477146 117.24347361537806 H 0.0 **** 0.06
12046 C 14.433332794263151 67.52766879095053 143.123511284404 C 0.0 **** -0.24
12047 H 15.340596646836275 67.08871524661532 142.70870257382603 H 0.0 **** 0.06
12048 H 14.69403494461352 68.38903281772242 143.7379195915541 H 0.0 **** 0.06
12049 H 13.919670590058843 66.78618572153735 143.73603818440898 H 0.0 **** 0.06
12050 H 13.778130601323994 67.8444754771871 142.31162717028099 H 0.0 **** 0.06
12051 C 115.94965403346461 131.03130160748026 29.628285837989452 C 0.0 **** -0.24
12052 H 116.22712477943173 130.9467383280391 30.67820353775059 H 0.0 **** 0.06
12053 H 114.86720494195265 131.12744507437742 29.54474795479672 H 0.0 **** 0.06
12054 H 116.2769478272773 130.13955742614854 29.09374746571912 H 0.0 **** 0.06
12055 H 116.42778865289543 131.91035772318077 29.195191345882662 H 0.0 **** 0.06
12056 C 28.4884227158674 123.58055193907157 74.64282255898561 C 0.0 **** -0.24
12057 H 29.14732320611502 122.7151160738373 74.5756058987095 H 0.0 **** 0.06
12058 H 28.75170039684498 124.17040759180179 75.5206051896725 H 0.0 **** 0.06
12059 H 27.45461674075257 123.2437202145889 74.72769786078521 H 0.0 **** 0.06
12060 H 28.599353288992816 124.19230973263427 73.7476745333848 H 0.0 **** 0.06
12061 C 72.72935080058879 0.024856638019819854 144.5017665012285 C 0.0 **** -0.24
12062 H 72.67974058700882 0.7582400901116415 143.6971357077032 H 0.0 **** 0.06
12063 H 72.23337302726812 -0.894313466663128 144.18616767648103 H 0.0 **** 0.06
12064 H 72.23102183288576 0.4219458672846059 145.3863186921775 H 0.0 **** 0.06
12065 H 73.77311525061538 -0.1865280559631941 144.73572053570737 H 0.0 **** 0.06
12066 C 73.19316719094816 64.6111672555595 63.921723002530484 C 0.0 **** -0.24
12067 H 73.68921716788466 64.99439047191387 64.81399739929861 H 0.0 **** 0.06
12068 H 73.65264462764415 63.6673619691321 63.628291156336275 H 0.0 **** 0.06
12069 H 73.29377751199533 65.33269330660833 63.11139227672436 H 0.0 **** 0.06
12070 H 72.13653260509898 64.45005160102787 64.13538460978691 H 0.0 **** 0.06
12071 C 66.24953531912115 118.60299124980895 143.27994617626882 C 0.0 **** -0.24
12072 H 66.51736356872568 117.58451285632847 143.00168743010283 H 0.0 **** 0.06
12073 H 66.37592644973988 119.26012925630056 142.4192591709744 H 0.0 **** 0.06
12074 H 66.89346180133029 118.93917065918751 144.09304659715627 H 0.0 **** 0.06
12075 H 65.20919447058557 118.62854391030825 143.60680579876856 H 0.0 **** 0.06
12076 C 117.65099012749275 132.87875077470244 49.31688724602316 C 0.0 **** -0.24
12077 H 117.6703865815951 133.87573514684715 48.87742153972141 H 0.0 **** 0.06
12078 H 118.02196709923834 132.15433851996292 48.59066675343138 H 0.0 **** 0.06
12079 H 116.62891892146905 132.62456038951876 49.59624160875086 H 0.0 **** 0.06
12080 H 118.28505395793124 132.86072020016408 50.203746966671304 H 0.0 **** 0.06
12081 C 81.86066169184107 73.61110412049379 123.23637005227914 C 0.0 **** -0.24
12082 H 81.38003609723705 72.75519065039472 122.76276119603239 H 0.0 **** 0.06
12083 H 82.93862125943065 73.44583855290983 123.27677707085965 H 0.0 **** 0.06
12084 H 81.47386206964381 73.73108749179069 124.24897672006455 H 0.0 **** 0.06
12085 H 81.65154767574143 74.5111968015523 122.6582942113996 H 0.0 **** 0.06
12086 C 120.10043501348594 101.34972284266325 111.32976374382628 C 0.0 **** -0.24
12087 H 120.48595426409295 100.49496510400706 111.88606520663939 H 0.0 **** 0.06
12088 H 119.02780910962906 101.23117746375164 111.17701609837951 H 0.0 **** 0.06
12089 H 120.60094148398352 101.41026562564548 110.36316815105772 H 0.0 **** 0.06
12090 H 120.2881011047551 102.26418934852273 111.89420301205826 H 0.0 **** 0.06
12091 C 62.96690917532746 92.88586860641044 91.52055447442676 C 0.0 **** -0.24
12092 H 62.93050196852322 93.62932193142998 90.7242311381048 H 0.0 **** 0.06
12093 H 62.690901942892154 93.35309822336887 92.46655855165972 H 0.0 **** 0.06
12094 H 63.97676444388428 92.48356003329147 91.59537632951324 H 0.0 **** 0.06
12095 H 62.26914068022285 92.07868805760484 91.29673560693944 H 0.0 **** 0.06
12096 C 36.61779611068738 145.38398431463517 145.22383055410666 C 0.0 **** -0.24
12097 H 35.56364034201101 145.2248862443908 145.44860950314498 H 0.0 **** 0.06
12098 H 37.18319950066069 145.44297301484377 146.1536291953431 H 0.0 **** 0.06
12099 H 36.73337095966201 146.31557796666576 144.66894593974627 H 0.0 **** 0.06
12100 H 36.99044257731231 144.55480032051688 144.62348426719632 H 0.0 **** 0.06
12101 C 134.2146722613413 158.8900815720658 163.25452153108893 C 0.0 **** -0.24
12102 H 133.76403449175973 158.08823121993552 163.83872678352458 H 0.0 **** 0.06
12103 H 134.8205143705247 159.51883486875488 163.9082461375968 H 0.0 **** 0.06
12104 H 133.42951274629888 159.4920089555646 162.79671681985934 H 0.0 **** 0.06
12105 H 134.84537431653797 158.46123337936248 162.47650398655003 H 0.0 **** 0.06
12106 C 23.206114588427255 114.88724665045675 167.59663261169595 C 0.0 **** -0.24
12107 H 23.587969060668314 114.66567166782315 166.60009818130516 H 0.0 **** 0.06
12108 H 23.068628315736987 113.95587176609124 168.1485761012269 H 0.0 **** 0.06
12109 H 22.24961834617386 115.40468977060652 167.513117445333 H 0.0 **** 0.06
12110 H 23.917465543672535 115.5217808672135 168.12540981963153 H 0.0 **** 0.06
12111 C 115.95334704709825 93.98120830659929 66.97518261195077 C 0.0 **** -0.24
12112 H 115.66631168704032 94.27843898344102 67.98411413981559 H 0.0 **** 0.06
12113 H 117.03255532722932 93.82488755136691 66.93670450701146 H 0.0 **** 0.06
12114 H 115.67459925059808 94.76501050863877 66.27126504326495 H 0.0 **** 0.06
12115 H 115.44238058240586 93.05613573458717 66.71032762798322 H 0.0 **** 0.06
12116 C 144.46637150421708 18.340493366577704 79.37776330514907 C 0.0 **** -0.24
12117 H 145.46565831226138 18.276224537685003 78.94730474148184 H 0.0 **** 0.06
12118 H 143.98147239953101 17.365965126806287 79.31830945267052 H 0.0 **** 0.06
12119 H 143.87979583166734 19.0735734657894 78.82422222495597 H 0.0 **** 0.06
12120 H 144.53965403059073 18.646903965287038 80.42065033975672 H 0.0 **** 0.06
12121 C 71.91380881092574 13.897128089081114 70.01681865275427 C 0.0 **** -0.24
12122 H 71.48874939615872 13.080432670658745 69.43488891268748 H 0.0 **** 0.06
12123 H 71.96630700057536 13.60608915762883 71.06648550362543 H 0.0 **** 0.06
12124 H 71.28473615651195 14.781940823180435 69.91540746686582 H 0.0 **** 0.06
12125 H 72.91629235340369 14.11990493361585 69.65099981964147 H 0.0 **** 0.06
12126 C 102.59024760023232 48.04391714168912 120.63274444542554 C 0.0 **** -0.24
12127 H 103.02403493868539 47.70079201004921 119.69362631282519 H 0.0 **** 0.06
12128 H 103.33516065242097 47.969786378577055 121.42576613011391 H 0.0 **** 0.06
12129 H 101.72986384705317 47.42334332874782 120.88277468152125 H 0.0 **** 0.06
12130 H 102.27262337846162 49.08106018287083 120.52858912272222 H 0.0 **** 0.06
12131 C 42.67771282864379 75.59653595426607 65.59224090675158 C 0.0 **** -0.24
12132 H 42.03040698109436 74.72587107907253 65.49641842533416 H 0.0 **** 0.06
12133 H 43.654706633205905 75.2842144240442 65.96468637569296 H 0.0 **** 0.06
12134 H 42.23236878736441 76.30487484509194 66.29079361358612 H 0.0 **** 0.06
12135 H 42.79507514504297 76.0718468145605 64.61834930119288 H 0.0 **** 0.06
12136 C 55.026373120603026 152.22816481901887 110.81688364385641 C 0.0 **** -0.24
12137 H 55.111457794061266 151.80658599368246 109.81477631044015 H 0.0 **** 0.06
12138 H 54.729822749510774 153.27434487848507 110.74703864724009 H 0.0 **** 0.06
12139 H 55.98874603825311 152.15497582922384 111.3234652515977 H 0.0 **** 0.06
12140 H 54.27580363200441 151.67396711804616 111.38119256569868 H 0.0 **** 0.06
12141 C 3.0610480825129116 105.94801904433896 97.6388335881046 C 0.0 **** -0.24
12142 H 3.64146639392996 105.33612951352117 96.94848297819647 H 0.0 **** 0.06
12143 H 3.7297751946960886 106.41146391688096 98.36407153542001 H 0.0 **** 0.06
12144 H 2.3376232605022835 105.32038749701962 98.15968516510111 H 0.0 **** 0.06
12145 H 2.534279613445335 106.72255086167894 97.08150816613517 H 0.0 **** 0.06
12146 C 40.15254208056915 133.0378688182771 124.86448373233418 C 0.0 **** -0.24
12147 H 40.07311778618724 133.4565209788518 125.86771916518003 H 0.0 **** 0.06
12148 H 41.14860437665014 133.23418209764145 124.4665098506583 H 0.0 **** 0.06
12149 H 39.404883086361764 133.49801966493794 124.2186119140982 H 0.0 **** 0.06
12150 H 39.98368551200657 131.96108955674964 124.90619837018326 H 0.0 **** 0.06
12151 C 153.27045242437808 124.21416110055998 110.13218016334304 C 0.0 **** -0.24
12152 H 152.28933766279027 124.54616959466486 109.7911048070606 H 0.0 **** 0.06
12153 H 153.23540853367368 123.14700393857476 110.35435068107304 H 0.0 **** 0.06
12154 H 153.5474575386769 124.76439379749775 111.0313544112447 H 0.0 **** 0.06
12155 H 154.00793869365322 124.39885229856273 109.35082917927423 H 0.0 **** 0.06
12156 C 14.752905346647765 56.45552796359188 103.16287411765956 C 0.0 **** -0.24
12157 H 14.801633625018496 55.803817987721075 104.03466470019106 H 0.0 **** 0.06
12158 H 15.614411826789876 56.26780178737505 102.52058936425504 H 0.0 **** 0.06
12159 H 14.76082811561895 57.49649074516154 103.486186512693 H 0.0 **** 0.06
12160 H 13.836463964096254 56.252838285643236 102.60921785740408 H 0.0 **** 0.06
12161 C 110.82198865802644 38.299844985783025 163.5048092190059 C 0.0 **** -0.24
12162 H 111.09868908435072 39.17582836091947 164.09090150384625 H 0.0 **** 0.06
12163 H 111.34478477289392 37.424498337039566 163.8917093140972 H 0.0 **** 0.06
12164 H 111.10037690670796 38.457794315656415 162.46272899899606 H 0.0 **** 0.06
12165 H 109.74636197099332 38.14099472723046 163.57298528262757 H 0.0 **** 0.06
12166 C 84.00425815201459 14.848279183487108 96.74730546481794 C 0.0 **** -0.24
12167 H 84.58777889488947 14.180258503050993 96.113536495251 H 0.0 **** 0.06
12168 H 84.58208947171713 15.103738424915662 97.63576578376663 H 0.0 **** 0.06
12169 H 83.07983612238753 14.352936162415375 97.04349860286987 H 0.0 **** 0.06
12170 H 83.76775726596185 15.758041675954814 96.1941049894804 H 0.0 **** 0.06
12171 C 144.20945855957223 138.40577775465863 171.3714658555823 C 0.0 **** -0.24
12172 H 144.12915608509593 139.48306958852584 171.22196991153976 H 0.0 **** 0.06
12173 H 145.23338049822678 138.0876955192789 171.1758163382406 H 0.0 **** 0.06
12174 H 143.53194126220023 137.8943800156005 170.6884220638396 H 0.0 **** 0.06
12175 H 143.94196377209084 138.1609181530927 172.3990676664451 H 0.0 **** 0.06
12176 C 79.4365285676855 155.96522221853039 125.47932742789357 C 0.0 **** -0.24
12177 H 80.42636718723891 155.599981443334 125.20580802205933 H 0.0 **** 0.06
12178 H 78.67750791533116 155.29438566196717 125.0776520225842 H 0.0 **** 0.06
12179 H 79.29244848624363 156.9651925900145 125.06978819871804 H 0.0 **** 0.06
12180 H 79.35077561702256 156.00158049258988 126.56578392458931 H 0.0 **** 0.06
12181 C 140.5020575969037 23.087031692239464 45.77922964955178 C 0.0 **** -0.24
12182 H 139.5473606787258 22.57736176556574 45.90796789703842 H 0.0 **** 0.06
12183 H 140.9933612823719 23.187741801255072 46.7479547907636 H 0.0 **** 0.06
12184 H 140.331259791793 24.075562729659907 45.35338381842662 H 0.0 **** 0.06
12185 H 141.13536373010012 22.50679553806981 45.10849235438482 H 0.0 **** 0.06
12186 C 142.0148007071793 65.25965540090729 146.77924928247646 C 0.0 **** -0.24
12187 H 142.43853260058512 65.19619432559122 147.78215814959842 H 0.0 **** 0.06
12188 H 142.80054983144987 65.52011501900529 146.06994660166012 H 0.0 **** 0.06
12189 H 141.23908433574138 66.02472001283599 146.76013340537372 H 0.0 **** 0.06
12190 H 141.58341124061803 64.29631118595188 146.50693100949206 H 0.0 **** 0.06
12191 C 71.40979792681243 26.830014789263075 82.63599042187467 C 0.0 **** -0.24
12192 H 72.26013883036819 27.33020372014181 82.17253107620624 H 0.0 **** 0.06
12193 H 70.56829641006036 27.519774394063774 82.6892917510205 H 0.0 **** 0.06
12194 H 71.68223641040768 26.509119250115297 83.64146419708355 H 0.0 **** 0.06
12195 H 71.13065007085282 25.960865040762947 82.04000100362691 H 0.0 **** 0.06
12196 C 26.146231467461234 25.56548749931619 81.57452918784593 C 0.0 **** -0.24
12197 H 25.698017190306246 26.00086296471045 80.68195351934551 H 0.0 **** 0.06
12198 H 26.086194533855064 26.279113338867745 82.39642998520428 H 0.0 **** 0.06
12199 H 27.192071951417425 25.327868155471776 81.37661518825497 H 0.0 **** 0.06
12200 H 25.61134913854523 24.65506414607313 81.84224985639554 H 0.0 **** 0.06
12201 C 45.12715664556464 125.88553085223603 24.781129296736502 C 0.0 **** -0.24
12202 H 45.678755718127036 126.79710653231581 24.550041775486193 H 0.0 **** 0.06
12203 H 45.4875031430895 125.47293328200709 25.72412233268645 H 0.0 **** 0.06
12204 H 45.27838128592691 125.15747062611328 23.98356323249409 H 0.0 **** 0.06
12205 H 44.06450359546585 126.11543861556711 24.86656428024277 H 0.0 **** 0.06
12206 C 118.52901398642871 148.210986235122 78.43760727122987 C 0.0 **** -0.24
12207 H 119.56370076561484 148.17588707288513 78.7794515611505 H 0.0 **** 0.06
12208 H 118.50073419779582 148.54760752255834 77.40045318677863 H 0.0 **** 0.06
12209 H 117.96410723309737 148.9039915418113 79.06006140952627 H 0.0 **** 0.06
12210 H 118.08905895316826 147.21646589991113 78.50884662488937 H 0.0 **** 0.06
12211 C 19.551022280114317 131.37457407727038 169.85282938200487 C 0.0 **** -0.24
12212 H 18.59659133151566 131.24956330344523 169.34164247926014 H 0.0 **** 0.06
12213 H 19.37387452431132 131.71733527880303 170.8723987147804 H 0.0 **** 0.06
12214 H 20.15319000682463 132.1113228411442 169.32091822464037 H 0.0 **** 0.06
12215 H 20.07854890422123 130.421912621322 169.87532265640988 H 0.0 **** 0.06
12216 C 126.8690252817961 118.0099346214123 34.97489103341668 C 0.0 **** -0.24
12217 H 126.65065437091471 119.07004446345758 35.10183763643447 H 0.0 **** 0.06
12218 H 127.8361812028815 117.89472336419959 34.48616006516215 H 0.0 **** 0.06
12219 H 126.09399443965015 117.55054645495437 34.36129190175197 H 0.0 **** 0.06
12220 H 126.89421328633625 117.52441746406356 35.951213152519784 H 0.0 **** 0.06
12221 C 114.06327581821455 171.52529144001159 124.83389869412386 C 0.0 **** -0.24
12222 H 115.08291942052466 171.22802310678446 125.07973941058214 H 0.0 **** 0.06
12223 H 113.45439551242833 171.51415545615004 125.73821388434575 H 0.0 **** 0.06
12224 H 113.64673254663771 170.82812693186082 124.10674771813623 H 0.0 **** 0.06
12225 H 114.06958681353666 172.52986206359964 124.41174327317253 H 0.0 **** 0.06
12226 C 67.27052035457615 9.832796557531005 71.48892290204036 C 0.0 **** -0.24
12227 H 67.13191929487604 8.753067244346887 71.43270418756279 H 0.0 **** 0.06
12228 H 66.31070007244568 10.313260419251662 71.67797496183239 H 0.0 **** 0.06
12229 H 67.68033847773228 10.195799192323491 70.54600275794972 H 0.0 **** 0.06
12230 H 67.96106830840569 10.068804520823733 72.29793583183425 H 0.0 **** 0.06
12231 C 102.6802310899337 73.67719500189241 5.0933943404209 C 0.0 **** -0.24
12232 H 102.5509594334707 73.69192000054926 4.010313895105817 H 0.0 **** 0.06
12233 H 101.84057484920282 73.15405164041209 5.551947096439477 H 0.0 **** 0.06
12234 H 102.71933386340496 74.70075533309989 5.467112720952933 H 0.0 **** 0.06
12235 H 103.60908644164556 73.16308748577984 5.340888560369031 H 0.0 **** 0.06
12236 C 138.235895409995 163.77886571338752 104.3606000976269 C 0.0 **** -0.24
12237 H 138.98960918105323 164.54444403539574 104.54410367432843 H 0.0 **** 0.06
12238 H 138.10684354058256 163.64743441752063 103.28567328587559 H 0.0 **** 0.06
12239 H 137.2893984547624 164.08664544223768 104.80529026362422 H 0.0 **** 0.06
12240 H 138.5584466993686 162.83835307194383 104.8057560082122 H 0.0 **** 0.06
12241 C 91.66189750106358 107.54998365169155 109.08174183829891 C 0.0 **** -0.24
12242 H 91.75927454114012 107.97028269956371 110.08330244040724 H 0.0 **** 0.06
12243 H 91.57568979190174 108.3586718588978 108.35651237195103 H 0.0 **** 0.06
12244 H 90.7707532334651 106.92350590966103 109.03731513916256 H 0.0 **** 0.06
12245 H 92.541291616189 106.94757379187325 108.8535324127165 H 0.0 **** 0.06
12246 C 131.9802812253871 23.877608882156665 58.53694805044374 C 0.0 **** -0.24
12247 H 132.59037594267295 23.100032616491717 58.076814607949544 H 0.0 **** 0.06
12248 H 132.4248850241346 24.173667593770944 59.48686219081705 H 0.0 **** 0.06
12249 H 130.97410415921422 23.493868375230704 58.70955499494801 H 0.0 **** 0.06
12250 H 131.93060534460852 24.7411615766774 57.873234066438485 H 0.0 **** 0.06
12251 C 116.33009934717364 159.8315433257228 41.04399783088127 C 0.0 **** -0.24
12252 H 115.54067487425829 159.1573103976029 41.376529261518954 H 0.0 **** 0.06
12253 H 115.96800668604868 160.85979258255054 41.08248946006361 H 0.0 **** 0.06
12254 H 116.61258321011502 159.58313743800545 40.02116277294715 H 0.0 **** 0.06
12255 H 117.19704262485078 159.72643423673665 41.696426848705954 H 0.0 **** 0.06
12256 C 77.42244281589616 10.079029820126834 31.286034740594403 C 0.0 **** -0.24
12257 H 76.78633587440542 9.53561319859773 30.587181017836997 H 0.0 **** 0.06
12258 H 76.83928056691728 10.366406547857764 32.16094650393313 H 0.0 **** 0.06
12259 H 77.81447988957916 10.972805152883495 30.80127835223422 H 0.0 **** 0.06
12260 H 78.25053159478999 9.440169956574607 31.594776160756624 H 0.0 **** 0.06
12261 C 124.71134684222139 119.80235561341192 81.878116039605 C 0.0 **** -0.24
12262 H 125.23138476401695 119.96358199945786 80.9337449250321 H 0.0 **** 0.06
12263 H 125.38981101129744 119.33140603922018 82.59011118085982 H 0.0 **** 0.06
12264 H 123.85069363568894 119.15348244649036 81.71347133807939 H 0.0 **** 0.06
12265 H 124.37337446347803 120.75929823197384 82.2756367029474 H 0.0 **** 0.06
12266 C 38.11258995297851 84.05179255890877 49.64061623741463 C 0.0 **** -0.24
12267 H 37.20958302542607 84.63519011710954 49.459909369747265 H 0.0 **** 0.06
12268 H 37.87948844505439 83.21693204649603 50.30045694407818 H 0.0 **** 0.06
12269 H 38.8659457767406 84.68676591205903 50.10865264183661 H 0.0 **** 0.06
12270 H 38.495657289927635 83.67201041969663 48.693483656812816 H 0.0 **** 0.06
12271 C 145.39566429641405 85.49658547061121 17.324441177009 C 0.0 **** -0.24
12272 H 144.64592958683858 85.21708721196762 18.064108502292513 H 0.0 **** 0.06
12273 H 144.94694822452746 86.1603765584036 16.585767737882875 H 0.0 **** 0.06
12274 H 145.76894889020465 84.59998067902227 16.829285995645492 H 0.0 **** 0.06
12275 H 146.22099817411464 86.00878962454193 17.820002584083348 H 0.0 **** 0.06
12276 C 167.83477915481905 69.77658033131351 153.0764863666792 C 0.0 **** -0.24
12277 H 167.8635348207439 70.75718554582606 153.55226544237314 H 0.0 **** 0.06
12278 H 166.80380808370597 69.52161560282212 152.83096890266097 H 0.0 **** 0.06
12279 H 168.24225554928978 69.02959530319144 153.75799612541437 H 0.0 **** 0.06
12280 H 168.4307681704011 69.79963638618024 152.16400200850524 H 0.0 **** 0.06
12281 C 151.4668327291835 136.3278591364031 124.57625820514727 C 0.0 **** -0.24
12282 H 152.17766271278154 137.07498185810545 124.93014459234325 H 0.0 **** 0.06
12283 H 150.48460842233 136.53096164824876 125.0035929456798 H 0.0 **** 0.06
12284 H 151.79893076172522 135.33681548856129 124.88348374888648 H 0.0 **** 0.06
12285 H 151.40672677070972 136.370719106839 123.48850065060975 H 0.0 **** 0.06
12286 C 116.93058488423955 112.06263430825646 109.99358581508466 C 0.0 **** -0.24
12287 H 117.08404228786478 111.2901123634878 110.7459552772277 H 0.0 **** 0.06
12288 H 116.37605825340097 111.64499129218743 109.15216513406818 H 0.0 **** 0.06
12289 H 117.89713177648082 112.4278640066959 109.64675509014717 H 0.0 **** 0.06
12290 H 116.36496582064396 112.88637177887009 110.42872927589013 H 0.0 **** 0.06
12291 C 66.82305447198281 117.82682627698671 11.240195808096537 C 0.0 **** -0.24
12292 H 65.74602754959594 117.97879976916968 11.172992853637147 H 0.0 **** 0.06
12293 H 67.08406844305308 116.86887968679224 10.7910118736107 H 0.0 **** 0.06
12294 H 67.1264658784902 117.83347668875538 12.286942896220744 H 0.0 **** 0.06
12295 H 67.33582798958922 118.62908501458838 10.70830252867632 H 0.0 **** 0.06
12296 C 163.69437963794036 55.71282520366704 58.18832162430667 C 0.0 **** -0.24
12297 H 163.96487196192692 56.16860017743437 59.140456196174455 H 0.0 **** 0.06
12298 H 163.86803582423374 56.42542321990585 57.38177169302942 H 0.0 **** 0.06
12299 H 162.64074082745486 55.43426638567402 58.20585518384847 H 0.0 **** 0.06
12300 H 164.30326398865202 54.824288367233606 58.025167439578496 H 0.0 **** 0.06
12301 C 100.93473052940902 154.31382814084895 51.92693368328058 C 0.0 **** -0.24
12302 H 101.64413829159795 153.6444949040049 51.43971007403843 H 0.0 **** 0.06
12303 H 100.7519261009036 155.17797743450035 51.28777819307267 H 0.0 **** 0.06
12304 H 101.34486816509374 154.64648736263212 52.879876029627454 H 0.0 **** 0.06
12305 H 99.99673879146687 153.7844553261237 52.099456597129674 H 0.0 **** 0.06
12306 C 162.6596356940731 83.83887868799322 88.45297495295188 C 0.0 **** -0.24
12307 H 163.20421010447265 84.626766813899 87.93202465320002 H 0.0 **** 0.06
12308 H 163.34416191681473 83.02825691071506 88.70337938087744 H 0.0 **** 0.06
12309 H 161.8666906145212 83.45928606503317 87.80792476119751 H 0.0 **** 0.06
12310 H 162.22298007298903 84.24197022161016 89.3670998283988 H 0.0 **** 0.06
12311 C 86.14707387970617 137.39695668408723 124.6809425448048 C 0.0 **** -0.24
12312 H 86.6302931238645 138.3676525877265 124.56859123265826 H 0.0 **** 0.06
12313 H 85.08246876689377 137.49482089573004 124.46836612041938 H 0.0 **** 0.06
12314 H 86.28286159744172 137.03957475948388 125.70215117506919 H 0.0 **** 0.06
12315 H 86.5939705491808 136.68620170359216 123.98502880031148 H 0.0 **** 0.06
12316 C 117.03324248985038 51.19781854093492 151.86136734870882 C 0.0 **** -0.24
12317 H 116.42000940049869 51.61917633806256 151.06470369657794 H 0.0 **** 0.06
12318 H 116.45500074016252 50.45479436221255 152.41116526721294 H 0.0 **** 0.06
12319 H 117.34216615260385 51.99295821876571 152.54086884589606 H 0.0 **** 0.06
12320 H 117.91506179939725 50.725913102703146 151.43014803564682 H 0.0 **** 0.06
12321 C 138.8937886940577 71.35395217055441 88.9812855627513 C 0.0 **** -0.24
12322 H 139.42919748547263 70.81472725576282 89.76260822110675 H 0.0 **** 0.06
12323 H 138.5264718362626 70.64577409853791 88.23813595045303 H 0.0 **** 0.06
12324 H 139.56753986034335 72.06530003619594 88.50419987857867 H 0.0 **** 0.06
12325 H 138.05246713000187 71.88953901800778 89.42091146660852 H 0.0 **** 0.06
12326 C 168.02519388997644 41.109184697187345 26.500797388088202 C 0.0 **** -0.24
12327 H 168.3713728453487 40.17497500601908 26.943027611247267 H 0.0 **** 0.06
12328 H 168.88281091166687 41.69230884591593 26.16638381790264 H 0.0 **** 0.06
12329 H 167.46637106091094 41.67741596732975 27.244117940063937 H 0.0 **** 0.06
12330 H 167.37985704171368 40.89078306709371 25.649121214526282 H 0.0 **** 0.06
12331 C 142.95870817072074 75.51057156811382 122.16697469483356 C 0.0 **** -0.24
12332 H 142.35561234419075 74.7137887810122 121.72929004059569 H 0.0 **** 0.06
12333 H 143.7900702162395 75.07446365970503 122.72090630527512 H 0.0 **** 0.06
12334 H 142.3409143286069 76.10109365292553 122.84390056618685 H 0.0 **** 0.06
12335 H 143.34440050206115 76.15047381700688 121.3749010537351 H 0.0 **** 0.06
12336 C 133.18932465005324 135.81352781883737 6.613104051553044 C 0.0 **** -0.24
12337 H 132.521322110799 135.6852409302105 5.761806073778281 H 0.0 **** 0.06
12338 H 133.30799716327496 134.86035065989228 7.12893477988591 H 0.0 **** 0.06
12339 H 132.76729183939383 136.5478626861851 7.2982936305724095 H 0.0 **** 0.06
12340 H 134.1619373030825 136.16062482897752 6.262720677293281 H 0.0 **** 0.06
12341 C 74.2243466922553 161.6827757780345 87.68114598189364 C 0.0 **** -0.24
12342 H 75.22681308245882 162.1100300642727 87.64143297107674 H 0.0 **** 0.06
12343 H 73.49536278159378 162.44222387558796 87.39473144129629 H 0.0 **** 0.06
12344 H 74.01479376721232 161.34218847841078 88.69486686670821 H 0.0 **** 0.06
12345 H 74.16146897504073 160.84024062385424 86.99327312987644 H 0.0 **** 0.06
12346 C 57.86214773481913 158.6936698945218 130.94070070644895 C 0.0 **** -0.24
12347 H 57.549666915953495 159.61483168958875 130.44812899599827 H 0.0 **** 0.06
12348 H 57.13958138154551 157.90539018065644 130.72971222318372 H 0.0 **** 0.06
12349 H 57.917315980676776 158.85823232443505 132.01645199542546 H 0.0 **** 0.06
12350 H 58.84299655039507 158.39757294816744 130.56701177153337 H 0.0 **** 0.06
12351 C 33.67868102620086 70.4508584705963 91.84809033695575 C 0.0 **** -0.24
12352 H 33.366868533008 69.73879864742943 92.61285042390918 H 0.0 **** 0.06
12353 H 32.91595933826909 70.50739894133051 91.07184426122052 H 0.0 **** 0.06
12354 H 34.6217303625658 70.12266657359953 91.40995195870687 H 0.0 **** 0.06
12355 H 33.81092816797407 71.4332435405272 92.30112945760081 H 0.0 **** 0.06
12356 C 112.4868247892916 152.1125392976785 95.771330742261 C 0.0 **** -0.24
12357 H 112.04737227123925 151.5200671307561 94.96793517203378 H 0.0 **** 0.06
12358 H 112.92774843181715 151.44620887588567 96.513250762545 H 0.0 **** 0.06
12359 H 111.71194048666587 152.71827922507268 96.24156967491143 H 0.0 **** 0.06
12360 H 113.25922056053801 152.7630902190199 95.36175725529029 H 0.0 **** 0.06
12361 C 41.22598067536768 96.32788074772796 130.55063541094782 C 0.0 **** -0.24
12362 H 40.608568574737944 95.78522725316384 129.83392786778703 H 0.0 **** 0.06
12363 H 40.77557479952111 97.29960863867095 130.75415850611694 H 0.0 **** 0.06
12364 H 42.223930687924764 96.46819879194732 130.13601656531364 H 0.0 **** 0.06
12365 H 41.2935509789003 95.75752537701464 131.47676724601033 H 0.0 **** 0.06
12366 C 18.373188246760208 148.14056783037572 91.95708379207818 C 0.0 **** -0.24
12367 H 17.744874568236924 148.19289441105437 91.06670292044417 H 0.0 **** 0.06
12368 H 19.10486916160255 147.3409266689659 91.83762977004511 H 0.0 **** 0.06
12369 H 17.751401723547474 147.93819389801968 92.82826658130136 H 0.0 **** 0.06
12370 H 18.890675432406596 149.09011234459604 92.09114121850388 H 0.0 **** 0.06
12371 C 130.0713386717292 162.84113793562736 25.67587240136632 C 0.0 **** -0.24
12372 H 130.52823078191216 162.42758770043682 26.574357770335922 H 0.0 **** 0.06
12373 H 129.61027505046764 163.80129674918362 25.91125427157749 H 0.0 **** 0.06
12374 H 129.30983079175277 162.15408124402305 25.306332082306767 H 0.0 **** 0.06
12375 H 130.8353350602389 162.9819601445762 24.911379232553088 H 0.0 **** 0.06
12376 C 28.426247304334566 157.98545574907774 43.9886024383984 C 0.0 **** -0.24
12377 H 29.489924680157543 158.20189772720664 44.08734702115237 H 0.0 **** 0.06
12378 H 27.866510342426494 158.9212387967655 43.955970232901024 H 0.0 **** 0.06
12379 H 28.09566126960121 157.39389675729257 44.84215853443999 H 0.0 **** 0.06
12380 H 28.252630765008945 157.4259382962886 43.06971632630331 H 0.0 **** 0.06
12381 C 162.59947222610106 136.39529605324748 8.881736530611676 C 0.0 **** -0.24
12382 H 162.99659803730037 136.95373289575133 9.729600657283527 H 0.0 **** 0.06
12383 H 163.18893055744667 135.49070275819267 8.733787153367302 H 0.0 **** 0.06
12384 H 162.64818700007135 137.0123344673916 7.985237999970963 H 0.0 **** 0.06
12385 H 161.56187003040054 136.12445945916556 9.080242055348776 H 0.0 **** 0.06
12386 C 134.60185650598987 117.49960630383427 127.6156047939161 C 0.0 **** -0.24
12387 H 135.6529640444798 117.40882746077281 127.88913052050023 H 0.0 **** 0.06
12388 H 133.98296849085187 117.36174370572073 128.50213494563997 H 0.0 **** 0.06
12389 H 134.35210556672814 116.740185594714 126.87436808963164 H 0.0 **** 0.06
12390 H 134.42013237803263 118.48971609278175 127.19628252877129 H 0.0 **** 0.06
12391 C 117.9623408910542 77.35093580460416 128.45193337311304 C 0.0 **** -0.24
12392 H 117.01321555628934 77.00177272904087 128.04315411786953 H 0.0 **** 0.06
12393 H 118.55296451060681 77.80714625725584 127.65738069843107 H 0.0 **** 0.06
12394 H 118.50777907379356 76.50633891621152 128.87317021279475 H 0.0 **** 0.06
12395 H 117.77179021918576 78.08671095435177 129.23313984482994 H 0.0 **** 0.06
12396 C 158.80432549043195 7.324570838647716 26.244284983998284 C 0.0 **** -0.24
12397 H 159.5311532936674 8.09756935432874 26.49485401209256 H 0.0 **** 0.06
12398 H 158.8363847498237 6.537770009695883 26.999291540770514 H 0.0 **** 0.06
12399 H 159.0446933190549 6.9030786010983505 25.268684778357283 H 0.0 **** 0.06
12400 H 157.80595708207835 7.760639352727921 26.215580514974818 H 0.0 **** 0.06
12401 C 135.82621504751447 172.35934468540057 29.598581023214763 C 0.0 **** -0.24
12402 H 135.7923040838654 172.7009912896724 30.632902935361926 H 0.0 **** 0.06
12403 H 135.18511608942933 171.48348343572354 29.483931683166986 H 0.0 **** 0.06
12404 H 136.85055641114639 172.09671891097253 29.335785216134582 H 0.0 **** 0.06
12405 H 135.47403119941274 173.15526461194565 28.941833573078384 H 0.0 **** 0.06
12406 C 142.3998218951159 123.3550706494176 133.68655997628014 C 0.0 **** -0.24
12407 H 141.57045865001453 122.91563117076689 133.13231026862672 H 0.0 **** 0.06
12408 H 142.46829107972508 124.41827859106866 133.4540883487016 H 0.0 **** 0.06
12409 H 143.32869053561694 122.86068191652532 133.40290348922133 H 0.0 **** 0.06
12410 H 142.23018130986938 123.22652925330945 134.75570420126587 H 0.0 **** 0.06
12411 C 93.19564388838052 97.6911807993568 32.507824662222504 C 0.0 **** -0.24
12412 H 92.42676666357568 97.11572587487686 33.02291845487571 H 0.0 **** 0.06
12413 H 93.38851084956008 97.24712068752726 31.53124791817504 H 0.0 **** 0.06
12414 H 94.11164570168751 97.68225530365362 33.09864460221087 H 0.0 **** 0.06
12415 H 92.8558268695063 98.718426188867 32.37972914742673 H 0.0 **** 0.06
12416 C 95.51540189579646 33.81559320954223 170.3278319610505 C 0.0 **** -0.24
12417 H 95.10936712002447 33.648604771780526 169.33027554610834 H 0.0 **** 0.06
12418 H 94.70824968123443 34.085967441693114 171.0092255948988 H 0.0 **** 0.06
12419 H 96.24654573842975 34.62388272961226 170.2909951522846 H 0.0 **** 0.06
12420 H 95.99886693750597 32.9045429141305 170.680064966007 H 0.0 **** 0.06
12421 C 101.21467838619657 87.9027304859024 98.3433813096544 C 0.0 **** -0.24
12422 H 101.07803767157 87.01257989945307 97.73066246076843 H 0.0 **** 0.06
12423 H 101.55962319877489 87.61074739250154 99.33605757995011 H 0.0 **** 0.06
12424 H 100.26675807354661 88.43292038384645 98.4303750646807 H 0.0 **** 0.06
12425 H 101.9551238615062 88.55447303554132 97.87872621684136 H 0.0 **** 0.06
12426 C 54.77518357955232 96.34488476734197 41.55241806642371 C 0.0 **** -0.24
12427 H 54.75751717821706 95.8065333509224 42.49920832421627 H 0.0 **** 0.06
12428 H 55.806267164199696 96.4513203337836 41.21427265940868 H 0.0 **** 0.06
12429 H 54.332117170261085 97.33171136175434 41.6872832609744 H 0.0 **** 0.06
12430 H 54.203661009308334 95.78881554543733 40.80837425395681 H 0.0 **** 0.06
12431 C 50.97728359467125 66.952439814018 47.90964179077713 C 0.0 **** -0.24
12432 H 51.325967156455334 67.58945653111928 47.09676993021401 H 0.0 **** 0.06
12433 H 51.81150256673699 66.71902428729257 48.57250386593944 H 0.0 **** 0.06
12434 H 50.57201288813626 66.02808513100524 47.4970532768113 H 0.0 **** 0.06
12435 H 50.200699477579064 67.4722377348949 48.47051112352756 H 0.0 **** 0.06
12436 C 114.78685322912847 39.41909021011952 107.71015591657425 C 0.0 **** -0.24
12437 H 114.82100169210526 39.01166951967451 106.6994509820436 H 0.0 **** 0.06
12438 H 115.25599499015624 40.40232545080454 107.7213640812048 H 0.0 **** 0.06
12439 H 115.32059815300155 38.753173260378844 108.38840230553743 H 0.0 **** 0.06
12440 H 113.74874560829443 39.50724466654975 108.03117079971526 H 0.0 **** 0.06
12441 C 59.31652175404615 46.48652894448736 39.848595119395725 C 0.0 **** -0.24
12442 H 59.23538087146038 47.08590417307215 38.941787709613266 H 0.0 **** 0.06
12443 H 60.30923492503264 46.03845639377208 39.9001097464581 H 0.0 **** 0.06
12444 H 58.56273310023711 45.69925733186918 39.83182421611508 H 0.0 **** 0.06
12445 H 59.158284802649206 47.12210038838535 40.71986097532084 H 0.0 **** 0.06
12446 C 54.7157364346144 81.86338942301995 63.406356926525746 C 0.0 **** -0.24
12447 H 55.695173442553426 82.28752487362942 63.62640791671646 H 0.0 **** 0.06
12448 H 54.267071121956775 82.39964407404096 62.57031771457622 H 0.0 **** 0.06
12449 H 54.07516238215581 81.95630014543843 64.28385432834767 H 0.0 **** 0.06
12450 H 54.82577595789955 80.81074064707724 63.146080078142404 H 0.0 **** 0.06
12451 C 28.55163214694157 13.336521926773798 78.97986309793077 C 0.0 **** -0.24
12452 H 28.31045823952165 12.311825567631331 78.69524979389007 H 0.0 **** 0.06
12453 H 29.24490999059944 13.760891728023239 78.25445544989174 H 0.0 **** 0.06
12454 H 29.009967991803222 13.340636962453004 79.96838243575857 H 0.0 **** 0.06
12455 H 27.638441594089485 13.931125695467443 79.00044346811336 H 0.0 **** 0.06
12456 C 144.65379585617097 58.61032041511051 111.45590068012291 C 0.0 **** -0.24
12457 H 145.248106171394 58.25903721594531 110.61317681579268 H 0.0 **** 0.06
12458 H 145.17931097548978 59.423545792915505 111.95711076216239 H 0.0 **** 0.06
12459 H 144.49889601860633 57.79033761172208 112.15804130906693 H 0.0 **** 0.06
12460 H 143.68837996704087 58.96721071175861 111.09593445040068 H 0.0 **** 0.06
12461 C 45.986614086872265 122.40753072857754 77.89862035843088 C 0.0 **** -0.24
12462 H 46.05215819481063 121.73583852969469 78.75420596365926 H 0.0 **** 0.06
12463 H 46.67887041041027 123.23827489400472 78.03427244826405 H 0.0 **** 0.06
12464 H 44.96977759472975 122.79088278520751 77.8153921980964 H 0.0 **** 0.06
12465 H 46.245211224985724 121.86365165970363 76.98981604639427 H 0.0 **** 0.06
12466 C 56.29450438041965 126.59338057678139 47.53439351790132 C 0.0 **** -0.24
12467 H 55.29533115352679 126.51919592301357 47.10597705585013 H 0.0 **** 0.06
12468 H 56.23657306365074 127.08121296916016 48.50829585003561 H 0.0 **** 0.06
12469 H 56.931751944747276 127.1785902767804 46.8714422884774 H 0.0 **** 0.06
12470 H 56.71456575752504 125.59446970351243 47.65283631993634 H 0.0 **** 0.06
12471 C 34.804823713704735 74.07770001655302 53.46573360936907 C 0.0 **** -0.24
12472 H 35.25715460512495 73.28440788751828 52.87129898353237 H 0.0 **** 0.06
12473 H 34.211125564239055 74.72384254851568 52.81910116278783 H 0.0 **** 0.06
12474 H 35.589063886341734 74.664007299118 53.945697500123686 H 0.0 **** 0.06
12475 H 34.16273021665769 73.63763574769195 54.229400155685084 H 0.0 **** 0.06
12476 C 57.1767241353856 37.811741936065005 73.8248577042427 C 0.0 **** -0.24
12477 H 57.56285450976483 38.80528640171249 74.05153566971592 H 0.0 **** 0.06
12478 H 56.393084239451895 37.55506556559425 74.53772581324591 H 0.0 **** 0.06
12479 H 57.984988895406914 37.08287140225515 73.89507911132296 H 0.0 **** 0.06
12480 H 56.76793904409375 37.802584473942446 72.81421083770931 H 0.0 **** 0.06
12481 C 121.44793433044529 99.35081715997265 119.55325865920398 C 0.0 **** -0.24
12482 H 122.35917659647808 99.25383062228582 120.14303939419852 H 0.0 **** 0.06
12483 H 121.70691993128528 99.54794632292035 118.51257726684719 H 0.0 **** 0.06
12484 H 120.8502657036966 100.17614596018365 119.94192793570753 H 0.0 **** 0.06
12485 H 120.87427149626006 98.42640015244805 119.61630879932852 H 0.0 **** 0.06
12486 C 34.87749963285506 164.38011263885596 144.40413926884312 C 0.0 **** -0.24
12487 H 35.167616075483096 165.42617160433406 144.29973472330886 H 0.0 **** 0.06
12488 H 33.881673429285414 164.32220055008 144.84430238161227 H 0.0 **** 0.06
12489 H 35.59022491269742 163.86921748696787 145.05079603857325 H 0.0 **** 0.06
12490 H 34.87064666509622 163.90493582790444 143.4238846171806 H 0.0 **** 0.06
12491 C 101.2007183680281 119.53213649697068 130.61548340201117 C 0.0 **** -0.24
12492 H 101.40227172179164 119.01187881150207 129.67937905055715 H 0.0 **** 0.06
12493 H 101.94285072174262 119.24044991846162 131.3601690797501 H 0.0 **** 0.06
12494 H 100.20550481397899 119.26832275359016 130.9715949590312 H 0.0 **** 0.06
12495 H 101.25453370413229 120.60843770606473 130.45147789858714 H 0.0 **** 0.06
12496 C 109.60512894528037 144.6546223281523 26.427114139199126 C 0.0 **** -0.24
12497 H 109.74167500846102 143.82242293833323 27.118025527142393 H 0.0 **** 0.06
12498 H 110.02329955738185 145.5616903525786 26.863909437230042 H 0.0 **** 0.06
12499 H 108.54064461983467 144.7994304579927 26.238893653826963 H 0.0 **** 0.06
12500 H 110.11327252923789 144.434613051709 25.488746847198364 H 0.0 **** 0.06
12501 C 105.61630732581125 103.3896667430759 164.16614486882517 C 0.0 **** -0.24
12502 H 104.64026025544152 103.87475846130002 164.1755960844862 H 0.0 **** 0.06
12503 H 105.5253264414745 102.40059314468772 163.71644041082095 H 0.0 **** 0.06
12504 H 105.98302020635956 103.29190936440722 165.18837056195272 H 0.0 **** 0.06
12505 H 106.31582743598321 103.99025283824614 163.5859155145635 H 0.0 **** 0.06
12506 C 121.24003379743351 161.31976320016796 55.99913828759463 C 0.0 **** -0.24
12507 H 121.51283485983535 160.9588523536237 56.99070982828914 H 0.0 **** 0.06
12508 H 120.67251375499632 160.54994265692176 55.476810323923246 H 0.0 **** 0.06
12509 H 122.14448014062802 161.5515139672691 55.43552528628595 H 0.0 **** 0.06
12510 H 120.63189701236251 162.218738675262 56.09472020789053 H 0.0 **** 0.06
12511 C 4.511373886726318 108.66449004802524 18.732848211109655 C 0.0 **** -0.24
12512 H 4.687418981309804 109.70390351484355 18.454294843229547 H 0.0 **** 0.06
12513 H 3.9661187080701836 108.16251199598287 17.933664873576276 H 0.0 **** 0.06
12514 H 3.924018936073196 108.63023378807026 19.65079313026382 H 0.0 **** 0.06
12515 H 5.46625604876678 108.1646431220766 18.89238586883087 H 0.0 **** 0.06
12516 C 90.31737091472738 137.13676511997772 104.91643893047438 C 0.0 **** -0.24
12517 H 90.59876037324545 136.99939676924618 105.96050602340159 H 0.0 **** 0.06
12518 H 89.26263794735053 137.4076681382694 104.85700709580118 H 0.0 **** 0.06
12519 H 90.48575274422664 136.20901772556738 104.37012629053868 H 0.0 **** 0.06
12520 H 90.9211871870372 137.93063377568097 104.47887110590264 H 0.0 **** 0.06
12521 C 34.750290572977576 169.991563596969 79.08158273235671 C 0.0 **** -0.24
12522 H 34.73033726851729 169.48970245480723 78.11420150229499 H 0.0 **** 0.06
12523 H 34.0089095854716 170.79017306523315 79.09124281543373 H 0.0 **** 0.06
12524 H 35.74117629534118 170.41289220628872 79.25111996590013 H 0.0 **** 0.06
12525 H 34.5224696406421 169.2726446260642 79.86825121836799 H 0.0 **** 0.06
12526 C 139.7321448371201 170.4936211062751 19.977282159789695 C 0.0 **** -0.24
12527 H 140.37130671458215 171.07057384113568 20.646487548946993 H 0.0 **** 0.06
12528 H 138.68831051181442 170.74178468878586 20.168098585252892 H 0.0 **** 0.06
12529 H 139.89103909803444 169.43039729829644 20.150850213329818 H 0.0 **** 0.06
12530 H 139.9795057854925 170.73396719631899 18.942474182371257 H 0.0 **** 0.06
12531 C 32.21537499326723 152.6925306532937 168.24637149503926 C 0.0 **** -0.24
12532 H 32.845386168983765 152.86456376162812 169.118585740392 H 0.0 **** 0.06
12533 H 32.1158433391671 151.61976087191482 168.07706211120663 H 0.0 **** 0.06
12534 H 32.66944529147224 153.1588552812119 167.3721657501904 H 0.0 **** 0.06
12535 H 31.230786917847865 153.12629528893086 168.41981236367684 H 0.0 **** 0.06
12536 C 58.93499635927648 139.3374623859187 158.69933744947087 C 0.0 **** -0.24
12537 H 58.668070775012595 138.5097228712008 159.35634598224104 H 0.0 **** 0.06
12538 H 58.102530383464824 140.03930664505924 158.64343363010568 H 0.0 **** 0.06
12539 H 59.15536731234087 138.95418749857407 157.70333184120747 H 0.0 **** 0.06
12540 H 59.814295170970894 139.84695798259798 159.09591666664673 H 0.0 **** 0.06
12541 C 142.7439720095333 124.29163437872265 168.1941170678017 C 0.0 **** -0.24
12542 H 142.7399961362522 123.36754068003526 168.77313800437864 H 0.0 **** 0.06
12543 H 143.7149973826375 124.77659071048083 168.29291614977748 H 0.0 **** 0.06
12544 H 141.9653520970217 124.95663027261818 168.56621200867062 H 0.0 **** 0.06
12545 H 142.55628013517202 124.06264856235975 167.145024390499 H 0.0 **** 0.06
12546 C 100.71194866751864 116.25498445643092 137.51542457280743 C 0.0 **** -0.24
12547 H 101.11456714146198 116.91727795905481 136.74909053138757 H 0.0 **** 0.06
12548 H 100.65345598722138 115.23976800286576 137.12267356976295 H 0.0 **** 0.06
12549 H 99.71645371477683 116.59318534624529 137.80171834031108 H 0.0 **** 0.06
12550 H 101.36619964125157 116.26942787209379 138.38742987744655 H 0.0 **** 0.06
12551 C 47.00031743784497 150.08422685491067 133.65089330316113 C 0.0 **** -0.24
12552 H 47.23565409797314 151.1179069061833 133.3962240850287 H 0.0 **** 0.06
12553 H 47.555746676111795 149.41351426512912 132.99508450656396 H 0.0 **** 0.06
12554 H 45.93101276590569 149.91446092279892 133.52558876540974 H 0.0 **** 0.06
12555 H 47.27921950709448 149.89396845215006 134.68713002887222 H 0.0 **** 0.06
12556 C 83.68149959934263 149.10817342114808 25.983759730396145 C 0.0 **** -0.24
12557 H 84.68377588409975 148.74926007593257 25.752574503953753 H 0.0 **** 0.06
12558 H 82.94850341401269 148.36041501916216 25.68198807413424 H 0.0 **** 0.06
12559 H 83.4958222213653 150.03747761300923 25.444003440860513 H 0.0 **** 0.06
12560 H 83.59821785934662 149.2878931945067 27.055869405418207 H 0.0 **** 0.06
12561 C 161.21132708608818 53.78905753820163 94.39570204747795 C 0.0 **** -0.24
12562 H 162.22002567032703 53.63726276599192 94.00945246105283 H 0.0 **** 0.06
12563 H 161.19514468817167 53.57061639959932 95.46409702196746 H 0.0 **** 0.06
12564 H 160.52107034550343 53.123268918066 93.87767759852292 H 0.0 **** 0.06
12565 H 160.91218831288944 54.82396191646336 94.23149763312509 H 0.0 **** 0.06
12566 C 87.16082008915532 4.101408705160679 41.868547711426004 C 0.0 **** -0.24
12567 H 87.40678758106031 4.782004648771988 42.68305941337127 H 0.0 **** 0.06
12568 H 87.98883277620189 4.069063259420375 41.1601403722957 H 0.0 **** 0.06
12569 H 86.2615817582871 4.4499580378968915 41.36167598983002 H 0.0 **** 0.06
12570 H 86.98675704679067 3.102876982971395 42.270556002921865 H 0.0 **** 0.06
12571 C 50.40671747943287 152.7017714609125 67.56213630615389 C 0.0 **** -0.24
12572 H 49.671054725350814 153.41354844969163 67.1856219544411 H 0.0 **** 0.06
12573 H 50.610770315930154 152.91293769523085 68.61235984284718 H 0.0 **** 0.06
12574 H 51.32768333099813 152.79282173465936 66.98665831344636 H 0.0 **** 0.06
12575 H 50.014969667015805 151.68928057861973 67.46375920120454 H 0.0 **** 0.06
12576 C 81.49733121838693 78.04608935691286 105.13037453581813 C 0.0 **** -0.24
12577 H 82.34725541758577 78.55163870410962 104.67167757134825 H 0.0 **** 0.06
12578 H 81.81644162246083 77.56348791258758 106.05437647980574 H 0.0 **** 0.06
12579 H 81.10764607395312 77.29451339796084 104.44285850882625 H 0.0 **** 0.06
12580 H 80.71750325043054 78.77490094978327 105.35093106612197 H 0.0 **** 0.06
12581 C 40.11821232050502 68.21302945675353 38.307811813930556 C 0.0 **** -0.24
12582 H 39.347189189690624 68.5489809369189 39.000962671423 H 0.0 **** 0.06
12583 H 39.736827783337134 68.26058748429959 37.28816715328867 H 0.0 **** 0.06
12584 H 40.396087949446695 67.18582917448454 38.54429417035641 H 0.0 **** 0.06
12585 H 40.993932813902035 68.85597446422062 38.39956439458041 H 0.0 **** 0.06
12586 C 139.8289720279779 168.7887968486716 25.92766270035593 C 0.0 **** -0.24
12587 H 140.19048275361502 169.81385668644384 25.83901991965991 H 0.0 **** 0.06
12588 H 138.98057703183383 168.76101529038118 26.610621900586892 H 0.0 **** 0.06
12589 H 140.6277275958931 168.15517711250308 26.31285583484574 H 0.0 **** 0.06
12590 H 139.5197441826906 168.4277213032904 24.947569473807953 H 0.0 **** 0.06
12591 C 52.53821676481242 146.810760382742 125.08321287612887 C 0.0 **** -0.24
12592 H 52.545896893832676 145.86642220533957 124.5391149060757 H 0.0 **** 0.06
12593 H 52.31961784215136 147.62572639057467 124.39287519513357 H 0.0 **** 0.06
12594 H 53.51360279689578 146.97420385865476 125.54175023608931 H 0.0 **** 0.06
12595 H 51.773749526370054 146.7766890763988 125.85911116721672 H 0.0 **** 0.06
12596 C 165.76857396856144 156.64462277053704 97.64947797068393 C 0.0 **** -0.24
12597 H 165.13358606365063 156.47794724115556 98.52004148646677 H 0.0 **** 0.06
12598 H 166.792149125008 156.3535410107461 97.88584738262759 H 0.0 **** 0.06
12599 H 165.74392767060817 157.70104601120107 97.3799752542063 H 0.0 **** 0.06
12600 H 165.40336064900197 156.04754086258856 96.81341599131053 H 0.0 **** 0.06
12601 C 157.6042862129304 119.81899717098568 83.87729163348891 C 0.0 **** -0.24
12602 H 157.03816119136556 119.33679885569813 84.67480430164838 H 0.0 **** 0.06
12603 H 158.63341944225482 119.97055054516107 84.20288118462291 H 0.0 **** 0.06
12604 H 157.15178136001668 120.78352361162052 83.64286607561296 H 0.0 **** 0.06
12605 H 157.59232586877334 119.186336750664 82.98979237913439 H 0.0 **** 0.06
12606 C 157.39562216088967 27.61930931197378 57.737363209601426 C 0.0 **** -0.24
12607 H 158.0313089189103 28.491961353821722 57.58623758473995 H 0.0 **** 0.06
12608 H 156.9397097708881 27.334045521914362 56.78868587828049 H 0.0 **** 0.06
12609 H 156.61411203898228 27.85946662048977 58.45831437603513 H 0.0 **** 0.06
12610 H 157.99686758601678 26.792942727234276 58.11560701070937 H 0.0 **** 0.06
12611 C 119.036307315801 46.36602420019925 73.93910518330807 C 0.0 **** -0.24
12612 H 118.98392092312997 45.3518821090218 74.33558933038171 H 0.0 **** 0.06
12613 H 118.71360963165066 47.07286015938672 74.70411194219656 H 0.0 **** 0.06
12614 H 118.38662666043771 46.449272423132015 73.06889146603015 H 0.0 **** 0.06
12615 H 120.06341567374335 46.58956490380557 73.64831797872671 H 0.0 **** 0.06
12616 C 97.98004963938754 133.0185663759404 17.310359603975918 C 0.0 **** -0.24
12617 H 97.33295314306059 132.19527465470262 17.613022869797263 H 0.0 **** 0.06
12618 H 98.41203228678637 133.48491791776527 18.195983353506307 H 0.0 **** 0.06
12619 H 97.39557400460305 133.7551267796813 16.75959543352449 H 0.0 **** 0.06
12620 H 98.77877463693628 132.6378528691387 16.673076452565113 H 0.0 **** 0.06
12621 C 146.64801687325993 124.86027469486044 160.29168339445314 C 0.0 **** -0.24
12622 H 147.67495126892808 125.1391259467714 160.52988276249607 H 0.0 **** 0.06
12623 H 146.08167226644267 124.73902972531687 161.21528376223634 H 0.0 **** 0.06
12624 H 146.64606448810906 123.92102436261018 159.73790798167448 H 0.0 **** 0.06
12625 H 146.19112949318497 125.6406528491674 159.68423791971108 H 0.0 **** 0.06
12626 C 45.3616405350906 143.06336844260267 34.54583161008071 C 0.0 **** -0.24
12627 H 45.76124058186173 143.98790792141813 34.13080907997181 H 0.0 **** 0.06
12628 H 45.87609342170501 142.8321477309176 35.47918761279351 H 0.0 **** 0.06
12629 H 45.51370193106354 142.2509410651768 33.83558006326456 H 0.0 **** 0.06
12630 H 44.29539324361025 143.1823344739703 34.73873051060548 H 0.0 **** 0.06
12631 C 114.1334832058078 11.413909757297859 102.91475610779852 C 0.0 **** -0.24
12632 H 114.25036643206974 12.476304131349991 102.70300468580925 H 0.0 **** 0.06
12633 H 115.04943989511747 10.887041486261921 102.64546930777166 H 0.0 **** 0.06
12634 H 113.3019003190798 11.01715794894261 102.33335774320832 H 0.0 **** 0.06
12635 H 113.93222617696432 11.275135462636797 103.97719269440489 H 0.0 **** 0.06
12636 C 155.69160758603135 37.861742460165885 112.18620196497477 C 0.0 **** -0.24
12637 H 156.65519028243716 38.0227923770621 112.66919108020602 H 0.0 **** 0.06
12638 H 155.49227137815876 36.791826654607576 112.12102185263612 H 0.0 **** 0.06
12639 H 155.7124375643213 38.288993377278416 111.18360136994235 H 0.0 **** 0.06
12640 H 154.90740085817765 38.34218273550084 112.77006418812212 H 0.0 **** 0.06
12641 C 12.039689400539203 76.82123161241148 36.02765326395013 C 0.0 **** -0.24
12642 H 11.937532561096646 77.90259668073298 35.93465991228808 H 0.0 **** 0.06
12643 H 11.350975210592878 76.45629049533431 36.78956069148313 H 0.0 **** 0.06
12644 H 13.061827607742032 76.57671462552489 36.31487283871229 H 0.0 **** 0.06
12645 H 11.808246714062648 76.35139056365279 35.07235706726033 H 0.0 **** 0.06
12646 C 152.79221549470347 150.731164211045 167.38311773391126 C 0.0 **** -0.24
12647 H 151.97807417429237 150.33280254932365 167.98808059641564 H 0.0 **** 0.06
12648 H 153.53501635058984 149.9511038632751 167.21345054976922 H 0.0 **** 0.06
12649 H 153.25666502492612 151.5677122443111 167.90568564425303 H 0.0 **** 0.06
12650 H 152.39921920628063 151.07402208526565 166.42626374011815 H 0.0 **** 0.06
12651 C 152.03166289868497 35.93734323807949 118.61401722603651 C 0.0 **** -0.24
12652 H 151.6320293972687 35.73524531738238 119.60785055425583 H 0.0 **** 0.06
12653 H 151.32235221782256 36.54650050912514 118.05395655481138 H 0.0 **** 0.06
12654 H 152.19454587469332 34.99456305842624 118.09016333315904 H 0.0 **** 0.06
12655 H 152.97823940559022 36.47011025699034 118.70419705603433 H 0.0 **** 0.06
12656 C 46.1410088548069 160.2080333682842 125.19309709769192 C 0.0 **** -0.24
12657 H 47.04374026036214 160.1870634313568 124.58311805081155 H 0.0 **** 0.06
12658 H 45.90542165620025 161.23833138132073 125.45996010524306 H 0.0 **** 0.06
12659 H 46.30175018806992 159.62566900967207 126.09986340591149 H 0.0 **** 0.06
12660 H 45.31137337806055 159.77969978229265 124.62969446178039 H 0.0 **** 0.06
12661 C 94.16387907530634 56.25403543762195 28.162913103909915 C 0.0 **** -0.24
12662 H 94.81904824665617 55.533836187675604 28.653529652011272 H 0.0 **** 0.06
12663 H 94.49609005734078 56.40571586036765 27.134954859269982 H 0.0 **** 0.06
12664 H 94.1979146241118 57.201047061322015 28.70080968246151 H 0.0 **** 0.06
12665 H 93.14236224758514 55.87256781289952 28.162732951209364 H 0.0 **** 0.06
12666 C 38.73389220968909 24.961189776924833 34.63745106327838 C 0.0 **** -0.24
12667 H 39.2440520522031 25.849804722794033 35.01148935759346 H 0.0 **** 0.06
12668 H 37.676779830319674 25.18332394915066 34.492582143343725 H 0.0 **** 0.06
12669 H 38.840129389847846 24.152030263675158 35.35893403999529 H 0.0 **** 0.06
12670 H 39.17653625545543 24.661988862227247 33.6875567340598 H 0.0 **** 0.06
12671 C 72.01426932708048 86.3827112012149 36.19847475860921 C 0.0 **** -0.24
12672 H 71.63745986122869 87.02372000806221 36.99475391097111 H 0.0 **** 0.06
12673 H 71.3110861985252 86.38731783916757 35.36523681518935 H 0.0 **** 0.06
12674 H 72.1287928072322 85.36584940554442 36.57297258987103 H 0.0 **** 0.06
12675 H 72.98096166041044 86.75610806707053 35.85956486325283 H 0.0 **** 0.06
12676 C 67.02632195382171 29.22837755678711 24.93165321888239 C 0.0 **** -0.24
12677 H 66.501123274497 29.714900660544856 24.109608933489824 H 0.0 **** 0.06
12678 H 67.98452804321296 29.723324460737786 25.093800912147742 H 0.0 **** 0.06
12679 H 67.19558733145834 28.18066824037504 24.685570769836033 H 0.0 **** 0.06
12680 H 66.42457598219106 29.296413017248142 25.838336827595157 H 0.0 **** 0.06
12681 C 69.29247426330706 61.66923607670677 93.59099462347905 C 0.0 **** -0.24
12682 H 68.29525646354396 61.36874754050865 93.91209815390533 H 0.0 **** 0.06
12683 H 69.21058117566629 62.45110518517404 92.8352801051953 H 0.0 **** 0.06
12684 H 69.81369605277996 60.80935958878311 93.16952164287454 H 0.0 **** 0.06
12685 H 69.84992987366539 62.0489421165596 94.4476682900102 H 0.0 **** 0.06
12686 C 140.60536254195785 62.845007807527736 91.36702455617508 C 0.0 **** -0.24
12687 H 141.2351107902047 62.051889279764694 91.76960662024084 H 0.0 **** 0.06
12688 H 141.21090285226072 63.73501713190372 91.19307471649809 H 0.0 **** 0.06
12689 H 139.81319620071548 63.07621394367099 92.07804027430652 H 0.0 **** 0.06
12690 H 140.16446960379005 62.5159061195768 90.42563850177575 H 0.0 **** 0.06
12691 C 35.79686686098549 96.88585174287468 101.50018195783878 C 0.0 **** -0.24
12692 H 36.57594189277762 97.10197337542871 102.23147172909142 H 0.0 **** 0.06
12693 H 35.83614301175376 97.62472107475205 100.69944498809838 H 0.0 **** 0.06
12694 H 34.822291621078136 96.92675318575974 101.98568513297809 H 0.0 **** 0.06
12695 H 35.95481660791978 95.89080755802402 101.08467609556038 H 0.0 **** 0.06
12696 C 101.08571330900554 113.68144781978907 40.93490555072158 C 0.0 **** -0.24
12697 H 101.67360388981695 114.50423452320138 41.34103591754263 H 0.0 **** 0.06
12698 H 100.12814079383577 114.06156273347648 40.57798155903011 H 0.0 **** 0.06
12699 H 100.91497954766339 112.9387927178725 41.714331345670544 H 0.0 **** 0.06
12700 H 101.62567470154994 113.2226169830422 40.10794359106875 H 0.0 **** 0.06
12701 C 1.9376010862057456 125.44986175398773 102.49949462343801 C 0.0 **** -0.24
12702 H 1.0134511560254396 125.72817277664018 103.00709987965911 H 0.0 **** 0.06
12703 H 2.494455276288676 126.34952649334147 102.23863654557925 H 0.0 **** 0.06
12704 H 1.6989201639006524 124.89341957938942 101.59242365367007 H 0.0 **** 0.06
12705 H 2.5412183748253483 124.82677321437933 103.15969310537994 H 0.0 **** 0.06
12706 C 98.08059626564273 4.927910030032365 11.89129579324009 C 0.0 **** -0.24
12707 H 98.72085097796656 4.926204530728654 11.008244138739492 H 0.0 **** 0.06
12708 H 97.22299049087951 4.277494031291212 11.71815550339025 H 0.0 **** 0.06
12709 H 97.7335166830988 5.94226839038555 12.086262573838553 H 0.0 **** 0.06
12710 H 98.64601117878914 4.564356269903669 12.74931200709699 H 0.0 **** 0.06
12711 C 35.33315013572633 151.9306886797957 151.5094110221582 C 0.0 **** -0.24
12712 H 36.20425176643994 152.2859277150725 150.95974536463225 H 0.0 **** 0.06
12713 H 35.100704667951106 150.91086542715033 151.20175563019703 H 0.0 **** 0.06
12714 H 34.481266647167956 152.57772351993032 151.2989267276043 H 0.0 **** 0.06
12715 H 35.54646648264537 151.94763370165572 152.57883714181165 H 0.0 **** 0.06
12716 C 99.35148725563332 99.96540448713853 43.22045006401066 C 0.0 **** -0.24
12717 H 100.12152228176723 99.19811493424271 43.3062697126318 H 0.0 **** 0.06
12718 H 98.77322863831859 100.00355972791675 44.14425327152105 H 0.0 **** 0.06
12719 H 98.69137519607892 99.72395544800003 42.38755294799245 H 0.0 **** 0.06
12720 H 99.82075293684997 100.93313723888895 43.04362748822237 H 0.0 **** 0.06
12721 C 32.996383701975674 69.97631465393751 23.438030064459298 C 0.0 **** -0.24
12722 H 33.40201889412975 70.78167726790431 22.82538143214626 H 0.0 **** 0.06
12723 H 32.1256079664405 70.33894743684111 23.98488131264827 H 0.0 **** 0.06
12724 H 33.75544515785646 69.6406159577211 24.145038758945105 H 0.0 **** 0.06
12725 H 32.70320492898878 69.14454736078976 22.7978999629118 H 0.0 **** 0.06
12726 C 43.89211284185768 33.94035717849698 139.76568531027644 C 0.0 **** -0.24
12727 H 44.59218822789222 34.754820014726306 139.95320315394213 H 0.0 **** 0.06
12728 H 42.96962940661166 34.120156962949636 140.31727892794345 H 0.0 **** 0.06
12729 H 44.334286201428995 32.99979411310062 140.09299250982167 H 0.0 **** 0.06
12730 H 43.673969502148765 33.88726244844935 138.6992076457198 H 0.0 **** 0.06
12731 C 172.49654403171633 106.39145780626836 65.77962449891265 C 0.0 **** -0.24
12732 H 172.61604818783707 106.47340632441617 64.69873578309091 H 0.0 **** 0.06
12733 H 171.95761193871186 107.26302113343115 66.15183648841617 H 0.0 **** 0.06
12734 H 173.4784837810663 106.34111613572006 66.25027748584517 H 0.0 **** 0.06
12735 H 171.93475758757705 105.48768644889864 66.01479996309195 H 0.0 **** 0.06
12736 C 44.233017447884436 0.6613528736574779 78.62669226579015 C 0.0 **** -0.24
12737 H 45.24077167208527 0.6618466299385304 79.0413732863534 H 0.0 **** 0.06
12738 H 44.07169256359421 1.5816929270273548 78.06560167906308 H 0.0 **** 0.06
12739 H 43.50645541703989 0.5968450380327539 79.43676728967402 H 0.0 **** 0.06
12740 H 44.11315013881841 -0.19497310036881288 77.96302680807007 H 0.0 **** 0.06
12741 C 147.98719114812582 82.47810631082983 117.45865878230214 C 0.0 **** -0.24
12742 H 147.35915189257537 81.93379648198166 116.75386472000159 H 0.0 **** 0.06
12743 H 148.10045595630345 83.50924139847996 117.1219694057352 H 0.0 **** 0.06
12744 H 148.96621183287317 82.0038617742386 117.513874331577 H 0.0 **** 0.06
12745 H 147.52098789949247 82.46639063894524 118.44427710702115 H 0.0 **** 0.06
12746 C 73.14505023346199 120.6372055459166 7.829973564293994 C 0.0 **** -0.24
12747 H 74.03987643002512 120.87398348630097 8.40529735205881 H 0.0 **** 0.06
12748 H 72.27670827011052 121.09604801387007 8.303735144089408 H 0.0 **** 0.06
12749 H 73.0118751414852 119.55666994531774 7.794010341677065 H 0.0 **** 0.06
12750 H 73.2527591061357 121.02349575065358 6.817121737992537 H 0.0 **** 0.06
12751 C 90.25313985589122 141.1727031578485 142.96257706184716 C 0.0 **** -0.24
12752 H 90.4947275859452 140.1222197419417 142.80083917252216 H 0.0 **** 0.06
12753 H 90.74829026546084 141.52402698436146 143.8690713465407 H 0.0 **** 0.06
12754 H 89.17442733286003 141.28384075086876 143.07056733924287 H 0.0 **** 0.06
12755 H 90.59673483448944 141.75943695727625 142.1106755869983 H 0.0 **** 0.06
12756 C 126.59060345735344 143.47624203015124 147.0578888618969 C 0.0 **** -0.24
12757 H 126.93382336325121 144.0731588295497 147.90274187264401 H 0.0 **** 0.06
12758 H 127.45092218585253 143.13319634816764 146.4820906629158 H 0.0 **** 0.06
12759 H 125.94623257310062 144.08375941698955 146.42221915156875 H 0.0 **** 0.06
12760 H 126.03238004817644 142.61452459779724 147.42451113432685 H 0.0 **** 0.06
12761 C 70.16024529180893 53.5302795678095 24.030495157341676 C 0.0 **** -0.24
12762 H 70.27807635079326 54.39439648927626 24.68489564075756 H 0.0 **** 0.06
12763 H 71.03334885715329 52.88383117691296 24.121823353986883 H 0.0 **** 0.06
12764 H 70.06274311196265 53.86640011132356 22.998404328589004 H 0.0 **** 0.06
12765 H 69.26657208548951 52.976463269636525 24.317827522771125 H 0.0 **** 0.06
12766 C 74.7484908568578 143.3488430994686 36.53912869754623 C 0.0 **** -0.24
12767 H 75.29001695465351 142.87378177625206 35.72129411720522 H 0.0 **** 0.06
12768 H 74.30775958175327 144.28294754869813 36.187448342196376 H 0.0 **** 0.06
12769 H 75.43629516346029 143.5564534187527 37.35867391813298 H 0.0 **** 0.06
12770 H 73.9585793930894 142.68314917671717 36.88726612929298 H 0.0 **** 0.06
12771 C 14.492126179272319 71.6635261383192 21.782740039341093 C 0.0 **** -0.24
12772 H 14.215205425817643 70.61821471282207 21.921866320898573 H 0.0 **** 0.06
12773 H 15.436762037672757 71.71975610046975 21.239938484357424 H 0.0 **** 0.06
12774 H 14.603263758913783 72.14184004685967 22.755685268369973 H 0.0 **** 0.06
12775 H 13.714684215060721 72.17239270638437 21.214099595473954 H 0.0 **** 0.06
12776 C 152.9051859002612 89.711871338027 18.697214036099922 C 0.0 **** -0.24
12777 H 153.5738994009448 89.98550557495156 17.88137782058368 H 0.0 **** 0.06
12778 H 152.02752446996885 90.35936372179084 18.679656689692933 H 0.0 **** 0.06
12779 H 153.42504451637075 89.82835727131474 19.647414642570197 H 0.0 **** 0.06
12780 H 152.59353280116335 88.67439085701328 18.5780764234118 H 0.0 **** 0.06
12781 C 13.535289592938113 77.27450731821313 38.9610203342927 C 0.0 **** -0.24
12782 H 13.481775900767559 77.36714129528008 40.045418045195845 H 0.0 **** 0.06
12783 H 13.214317536678891 76.27515687302386 38.66582915380195 H 0.0 **** 0.06
12784 H 14.562362725950777 77.43774006636045 38.633011092572985 H 0.0 **** 0.06
12785 H 12.883503623199317 78.01683437295395 38.49996416840986 H 0.0 **** 0.06
12786 C 27.399927465097107 132.61324237770705 3.6626872261347216 C 0.0 **** -0.24
12787 H 27.933901741573322 132.05019623148533 2.897734500829813 H 0.0 **** 0.06
12788 H 27.94281196606954 133.53244586359253 3.8825588986105686 H 0.0 **** 0.06
12789 H 27.32231169149054 132.01179592772525 4.567997186005869 H 0.0 **** 0.06
12790 H 26.40034201274534 132.85715960516947 3.302485194958763 H 0.0 **** 0.06
12791 C 134.42732437500388 87.87800684000884 38.657149585848074 C 0.0 **** -0.24
12792 H 134.91001738606883 87.6525322711151 39.60806906730765 H 0.0 **** 0.06
12793 H 133.64034677260645 88.61585469982408 38.81522549150729 H 0.0 **** 0.06
12794 H 133.99456661791316 86.96681696067459 38.24377696767752 H 0.0 **** 0.06
12795 H 135.16571147588843 88.27718346242865 37.96127767397927 H 0.0 **** 0.06
12796 C 128.9299487247333 65.65715036584301 170.20939696729886 C 0.0 **** -0.24
12797 H 128.36431073436677 65.71755020457681 169.28002315295822 H 0.0 **** 0.06
12798 H 129.39612238227218 66.62077349473944 170.41420605888766 H 0.0 **** 0.06
12799 H 129.70088364437507 64.89282620880715 170.11580158795744 H 0.0 **** 0.06
12800 H 128.25734113563797 65.39711062149814 171.026788274326 H 0.0 **** 0.06
12801 C 57.254629314260086 116.61937563801311 61.063343905696016 C 0.0 **** -0.24
12802 H 56.98832038453804 117.25963011356689 61.90324205098635 H 0.0 **** 0.06
12803 H 56.34686202259583 116.27428017378921 60.56778778708458 H 0.0 **** 0.06
12804 H 57.81976835195624 115.7599820034203 61.42607613936579 H 0.0 **** 0.06
12805 H 57.86373006975815 117.18236937435273 60.355611238352566 H 0.0 **** 0.06
12806 C 83.37415723165435 43.33428746343171 49.10254237058092 C 0.0 **** -0.24
12807 H 82.6747572880289 43.12985198059155 48.2909981155388 H 0.0 **** 0.06
12808 H 83.70568831993148 44.37085013222206 49.04317781452045 H 0.0 **** 0.06
12809 H 84.23484058150666 42.670996726545894 49.01594122604949 H 0.0 **** 0.06
12810 H 82.87896882863839 43.16481037442516 50.05806375432539 H 0.0 **** 0.06
12811 C 20.013406568280658 118.69820597899414 57.65615594945744 C 0.0 **** -0.24
12812 H 20.36378814993759 119.32727400358448 58.4745741544544 H 0.0 **** 0.06
12813 H 18.967485480463353 118.9242459530279 57.446531957681344 H 0.0 **** 0.06
12814 H 20.109487162337643 117.649763581185 57.93826805745728 H 0.0 **** 0.06
12815 H 20.61222080388245 118.89337559035079 56.76673843852848 H 0.0 **** 0.06
12816 C 107.85654692153392 123.12795223993956 18.49458699711456 C 0.0 **** -0.24
12817 H 107.90203808299404 123.85469513964492 19.304882289390058 H 0.0 **** 0.06
12818 H 106.8360487360602 122.75532649241629 18.397624455485236 H 0.0 **** 0.06
12819 H 108.52759475275835 122.29769375163121 18.71300818331992 H 0.0 **** 0.06
12820 H 108.15981734030476 123.60513731779415 17.562172568461996 H 0.0 **** 0.06
12821 C 131.02878539873976 93.03887215118382 141.87429222568358 C 0.0 **** -0.24
12822 H 131.67293568790208 93.87653184618046 142.13786530609016 H 0.0 **** 0.06
12823 H 130.78339920002742 93.08866387210378 140.81352006435787 H 0.0 **** 0.06
12824 H 130.11194408136942 93.08657691537346 142.4614697343209 H 0.0 **** 0.06
12825 H 131.5464173346668 92.1023947789894 142.0840766835191 H 0.0 **** 0.06
12826 C 141.32709962320243 43.88180599976175 81.69846693253179 C 0.0 **** -0.24
12827 H 141.99827942179837 44.26170544860196 82.469724551495 H 0.0 **** 0.06
12828 H 140.30512806773163 44.18751187294782 81.92492062217774 H 0.0 **** 0.06
12829 H 141.38368635374974 42.79457990139247 81.67142106259409 H 0.0 **** 0.06
12830 H 141.6206449895012 44.28573527263944 80.73008972454059 H 0.0 **** 0.06
12831 C 57.62608530187261 73.46962936071169 61.54578563802059 C 0.0 **** -0.24
12832 H 56.690773594068474 72.91930187343411 61.64375924507084 H 0.0 **** 0.06
12833 H 58.276639750957486 73.23199870370314 62.388956341458425 H 0.0 **** 0.06
12834 H 57.419267028353275 74.54015963137137 61.53622798978478 H 0.0 **** 0.06
12835 H 58.11922071163487 73.18680360442453 60.61607050497412 H 0.0 **** 0.06
12836 C 22.152609524176768 152.86990335061304 130.06667822609035 C 0.0 **** -0.24
12837 H 22.98635862505057 152.1856982905821 130.22769092208623 H 0.0 **** 0.06
12838 H 22.31367811931358 153.426868416939 129.14435020831706 H 0.0 **** 0.06
12839 H 22.085775035101875 153.56438906958203 130.90374746119122 H 0.0 **** 0.06
12840 H 21.226081557851927 152.30087522911901 129.99176425683325 H 0.0 **** 0.06
12841 C 103.29297239862865 110.66809264516078 92.27922095586135 C 0.0 **** -0.24
12842 H 102.33049850147 111.14663251706267 92.46334266984536 H 0.0 **** 0.06
12843 H 103.72346218775323 111.06000170234171 91.3581997878052 H 0.0 **** 0.06
12844 H 103.15078597011382 109.59173382624925 92.18545058573645 H 0.0 **** 0.06
12845 H 103.96455678499711 110.87382296113762 93.11195956901022 H 0.0 **** 0.06
12846 C 118.53589819850285 125.37845941604888 102.56884951845333 C 0.0 **** -0.24
12847 H 118.37341569161308 125.55786407409022 101.50589062984974 H 0.0 **** 0.06
12848 H 119.60391896135991 125.40520491763817 102.7826636556695 H 0.0 **** 0.06
12849 H 118.13531881032839 124.40018338604528 102.83646748491304 H 0.0 **** 0.06
12850 H 118.02851906086141 126.14933521251345 103.14911937837513 H 0.0 **** 0.06
12851 C 62.2408180381089 54.988357770327866 170.28297958441186 C 0.0 **** -0.24
12852 H 61.28042975606341 55.12187143327267 169.78647621583943 H 0.0 **** 0.06
12853 H 62.764139377061795 55.9443744846823 170.3249443881922 H 0.0 **** 0.06
12854 H 62.841410611395716 54.26969497532633 169.72650541784074 H 0.0 **** 0.06
12855 H 62.07735799669558 54.619490648409624 171.29540441491193 H 0.0 **** 0.06
12856 C 53.735571033420484 151.22738870272002 167.30727151980886 C 0.0 **** -0.24
12857 H 53.85062393624571 150.28284151493511 167.83797161892028 H 0.0 **** 0.06
12858 H 54.701762003853915 151.542392086118 166.911521475553 H 0.0 **** 0.06
12859 H 53.35969954963058 151.9859744123583 167.99278117940446 H 0.0 **** 0.06
12860 H 53.030785896709205 151.09842085239205 166.48552739657123 H 0.0 **** 0.06
12861 C 100.44694215949318 144.42998229741121 164.48401693392464 C 0.0 **** -0.24
12862 H 100.69769553357065 145.1819346698054 163.7359851476226 H 0.0 **** 0.06
12863 H 101.14971041791387 144.49680189776916 165.3153929866067 H 0.0 **** 0.06
12864 H 100.50832553698854 143.4380206533145 164.03597076022888 H 0.0 **** 0.06
12865 H 99.43416856802378 144.6031057517101 164.848045929629 H 0.0 **** 0.06
12866 C 60.13947971575517 74.30730359290754 93.26883302520778 C 0.0 **** -0.24
12867 H 60.051155272212384 73.24771704865051 93.5048929353039 H 0.0 **** 0.06
12868 H 60.35058242997299 74.42735579240339 92.20601869005918 H 0.0 **** 0.06
12869 H 60.950676078161365 74.74268366186891 93.85233867333662 H 0.0 **** 0.06
12870 H 59.20412427531531 74.81293094434116 93.51304282183702 H 0.0 **** 0.06
12871 C 7.018433692537684 22.156835161368342 37.19246177077565 C 0.0 **** -0.24
12872 H 7.960254513835771 21.827041109728512 36.754593533975594 H 0.0 **** 0.06
12873 H 6.495396857217912 21.3001000009734 37.61681599299976 H 0.0 **** 0.06
12874 H 6.399780450506995 22.6155651764821 36.421152414007395 H 0.0 **** 0.06
12875 H 7.2186830757254725 22.886586612379233 37.977495663037075 H 0.0 **** 0.06
12876 C 86.27789773892482 113.49132038967133 119.90046774358578 C 0.0 **** -0.24
12877 H 87.24281901032828 113.9884913486843 119.99987681466027 H 0.0 **** 0.06
12878 H 85.71884347549076 113.9463176060413 119.08271469178698 H 0.0 **** 0.06
12879 H 85.71691050166947 113.5983727203631 120.82819144589965 H 0.0 **** 0.06
12880 H 86.43384953481205 112.43304782238152 119.69044773697254 H 0.0 **** 0.06
12881 C 99.31890477288388 63.89004667863526 92.28797111468319 C 0.0 **** -0.24
12882 H 99.01750564577085 64.92979805021787 92.41220402375427 H 0.0 **** 0.06
12883 H 99.3610027392098 63.40595669141871 93.26405300235388 H 0.0 **** 0.06
12884 H 100.30242411287696 63.850238906288666 91.82016429134364 H 0.0 **** 0.06
12885 H 98.59561783567017 63.374826591692 91.65739486951972 H 0.0 **** 0.06
12886 C 138.10278311543362 156.38698814051256 143.44963788797713 C 0.0 **** -0.24
12887 H 137.47235133686252 155.66424717789292 143.96944122711346 H 0.0 **** 0.06
12888 H 137.64145254319772 156.65282550230444 142.49842245974605 H 0.0 **** 0.06
12889 H 139.08361796150677 155.94758745541952 143.2689552435009 H 0.0 **** 0.06
12890 H 138.21175609332283 157.28094999774373 144.0636543956668 H 0.0 **** 0.06
12891 C 97.42773002390399 98.57685015406187 74.63448422353503 C 0.0 **** -0.24
12892 H 97.68819479903735 99.58641815609766 74.31850843032302 H 0.0 **** 0.06
12893 H 98.30071625601397 97.92998415186057 74.54000863487687 H 0.0 **** 0.06
12894 H 96.62361926174651 98.19568451464394 74.0058724254522 H 0.0 **** 0.06
12895 H 97.09878697558858 98.59444584050715 75.67384559806828 H 0.0 **** 0.06
12896 C 115.12404159132265 83.53124932485481 127.77598295659584 C 0.0 **** -0.24
12897 H 114.23181508853813 83.01532821158223 128.12866895929938 H 0.0 **** 0.06
12898 H 115.64345848886 83.98075071237123 128.62303301930496 H 0.0 **** 0.06
12899 H 114.83770034791698 84.3115867719939 127.07035602529436 H 0.0 **** 0.06
12900 H 115.78414676151922 82.81926007706353 127.28126521780484 H 0.0 **** 0.06
12901 C 129.90433803818067 14.682124490891766 142.9963086204018 C 0.0 **** -0.24
12902 H 130.2347318399094 14.710290662120997 144.03488350997216 H 0.0 **** 0.06
12903 H 130.64053365911056 15.184927980165412 142.36820124282895 H 0.0 **** 0.06
12904 H 128.94401551866065 15.188335539739285 142.9064744738872 H 0.0 **** 0.06
12905 H 129.80101262665582 13.645752939572219 142.67697648419085 H 0.0 **** 0.06
12906 C 105.34808276350498 102.98627596470837 114.45492035183062 C 0.0 **** -0.24
12907 H 105.17622201512393 102.88504219164042 115.52674300737647 H 0.0 **** 0.06
12908 H 105.78566265011901 103.96305733778362 114.24776295286142 H 0.0 **** 0.06
12909 H 104.399797031073 102.89242935587228 113.92488715151788 H 0.0 **** 0.06
12910 H 106.02959854374902 102.20355866199492 114.12198034773502 H 0.0 **** 0.06
12911 C 83.22928306529855 12.963710713409085 135.89517757615525 C 0.0 **** -0.24
12912 H 82.65294581947899 12.102295319342282 135.55843424830755 H 0.0 **** 0.06
12913 H 82.88250916077737 13.857772962124038 135.3754249567449 H 0.0 **** 0.06
12914 H 84.28489698094756 12.801914134092222 135.6771287022783 H 0.0 **** 0.06
12915 H 83.09558830500202 13.092179390247018 136.96938272441196 H 0.0 **** 0.06
12916 C 112.35260494599305 79.90875183867719 36.70111844294347 C 0.0 **** -0.24
12917 H 111.30926919239764 79.65581255284215 36.508000717181005 H 0.0 **** 0.06
12918 H 112.91623984834573 78.9969622963374 36.898257244098716 H 0.0 **** 0.06
12919 H 112.41141948320387 80.56854314377313 37.56685250943647 H 0.0 **** 0.06
12920 H 112.77009576916774 80.41395341635511 35.82981368560415 H 0.0 **** 0.06
12921 C 16.72676337123272 142.99875831819338 23.53671899113013 C 0.0 **** -0.24
12922 H 17.250673544088045 143.3725021933007 24.416669468224768 H 0.0 **** 0.06
12923 H 17.45447907959283 142.70047338209326 22.781158823845914 H 0.0 **** 0.06
12924 H 16.086443350413106 143.7842098823687 23.13576851389692 H 0.0 **** 0.06
12925 H 16.117470624352563 142.13959084963005 23.81466098910525 H 0.0 **** 0.06
12926 C 20.895188977435566 50.10239073988053 23.17344727834692 C 0.0 **** -0.24
12927 H 20.9523769782937 49.19425243354455 23.772718090628842 H 0.0 **** 0.06
12928 H 21.90168586491697 50.46278671592758 22.96258732276808 H 0.0 **** 0.06
12929 H 20.342657545702394 50.865238907725285 23.722073633930698 H 0.0 **** 0.06
12930 H 20.382759551076163 49.88682917811269 22.236004760624965 H 0.0 **** 0.06
12931 C 14.343644862103282 0.5763805061018275 39.0285935761722 C 0.0 **** -0.24
12932 H 13.495596274603322 0.020623929228065663 38.629604376386425 H 0.0 **** 0.06
12933 H 14.17341325178117 1.645355297682471 38.89571275179951 H 0.0 **** 0.06
12934 H 15.250905104259566 0.28439549333219816 38.499797029721975 H 0.0 **** 0.06
12935 H 14.455630184386486 0.3547744226042937 40.090224036038094 H 0.0 **** 0.06
12936 C 169.99049158845833 78.71061397607096 145.42097890146132 C 0.0 **** -0.24
12937 H 169.15179814500596 78.10511271193579 145.07729341498407 H 0.0 **** 0.06
12938 H 170.8499244857956 78.06643463041614 145.6096884173029 H 0.0 **** 0.06
12939 H 169.7131854238316 79.22599485401993 146.34018889317494 H 0.0 **** 0.06
12940 H 170.246863017597 79.4435377901358 144.6564826376857 H 0.0 **** 0.06
12941 C 134.4011064312334 58.11048229138402 6.4612569632119445 C 0.0 **** -0.24
12942 H 133.7003812355573 57.31404113030828 6.709556844314029 H 0.0 **** 0.06
12943 H 134.44143352739826 58.827166256873795 7.281739756308305 H 0.0 **** 0.06
12944 H 134.07051544323684 58.61448033526597 5.55329565118128 H 0.0 **** 0.06
12945 H 135.3925600745093 57.68536619018482 6.300570316393944 H 0.0 **** 0.06
12946 C 68.93521768235557 68.92806929857817 37.847057677928404 C 0.0 **** -0.24
12947 H 68.11619121097027 68.20918330732525 37.847918953288314 H 0.0 **** 0.06
12948 H 68.66372543691524 69.78638463967158 37.232272407677215 H 0.0 **** 0.06
12949 H 69.83114335731162 68.45822901106396 37.4408834754033 H 0.0 **** 0.06
12950 H 69.12907422196744 69.25914559412622 38.86727790507689 H 0.0 **** 0.06
12951 C 89.98513879193172 4.237494858404844 120.65273247655031 C 0.0 **** -0.24
12952 H 91.00369599848487 4.620314380409944 120.7291370857171 H 0.0 **** 0.06
12953 H 89.27887656100486 5.06128553440427 120.76170863054048 H 0.0 **** 0.06
12954 H 89.8135108830062 3.50506070445649 121.44060252649575 H 0.0 **** 0.06
12955 H 89.84696901791642 3.7651298725380045 119.68017727598058 H 0.0 **** 0.06
12956 C 19.980541499751503 145.62104265052903 13.699502932852042 C 0.0 **** -0.24
12957 H 20.05145281141595 146.70472487222492 13.789567335634693 H 0.0 **** 0.06
12958 H 20.747898715082222 145.2628545895675 13.012535372604177 H 0.0 **** 0.06
12959 H 18.996367349423686 145.351550922885 13.317258751543868 H 0.0 **** 0.06
12960 H 20.126447123084155 145.16504021743867 14.678650271625635 H 0.0 **** 0.06
12961 C 39.296571631709014 19.075566803265474 124.26875539113277 C 0.0 **** -0.24
12962 H 38.329527920809426 19.157951522776443 124.76481728487525 H 0.0 **** 0.06
12963 H 40.09313132195439 19.229915505880285 124.996989102474 H 0.0 **** 0.06
12964 H 39.3681808166632 19.831929911954575 123.48604139075263 H 0.0 **** 0.06
12965 H 39.39491546237571 18.08401217849621 123.82659013996411 H 0.0 **** 0.06
12966 C 156.18402266315846 73.4650500371629 158.5684587369414 C 0.0 **** -0.24
12967 H 156.76795752115362 74.09799924497177 157.90060055287086 H 0.0 **** 0.06
12968 H 155.2877904794562 73.99864572935941 158.88396258530605 H 0.0 **** 0.06
12969 H 156.78323476223923 73.21034337712607 159.44284570693816 H 0.0 **** 0.06
12970 H 155.89911705987154 72.55132963418552 158.04523406684666 H 0.0 **** 0.06
12971 C 20.918081828199433 119.38125505805235 149.4403260146638 C 0.0 **** -0.24
12972 H 20.90534581896779 118.53246538935645 148.75672520117737 H 0.0 **** 0.06
12973 H 20.238264608971292 120.15166081884973 149.07587614390155 H 0.0 **** 0.06
12974 H 21.92837636918631 119.78608699018895 149.49906467557892 H 0.0 **** 0.06
12975 H 20.599959690833856 119.05442715608021 150.43048106426116 H 0.0 **** 0.06
12976 C 140.40866178450983 152.37823242863834 120.33055416720285 C 0.0 **** -0.24
12977 H 139.481329061854 152.88124454794178 120.05535963417015 H 0.0 **** 0.06
12978 H 140.44600941738432 152.2522627535053 121.41295612644171 H 0.0 **** 0.06
12979 H 141.25757812873363 152.9798228605995 120.00489147003157 H 0.0 **** 0.06
12980 H 140.44917375379572 151.40144347572362 119.8484708668341 H 0.0 **** 0.06
12981 C 49.877294960384916 105.3133106719842 83.72962154713167 C 0.0 **** -0.24
12982 H 49.04733817942662 105.81948300767715 84.22307317127522 H 0.0 **** 0.06
12983 H 49.50964751437188 104.7879721579821 82.8477950309621 H 0.0 **** 0.06
12984 H 50.32774709789861 104.59920958429004 84.41861913665906 H 0.0 **** 0.06
12985 H 50.62355725494368 106.04944086689227 83.43000492241308 H 0.0 **** 0.06
12986 C 27.2666827733608 115.70978350309574 113.02634754253862 C 0.0 **** -0.24
12987 H 28.01661649146621 114.95680249446869 112.78135521527656 H 0.0 **** 0.06
12988 H 27.298318113003347 116.50800178184758 112.28565601919539 H 0.0 **** 0.06
12989 H 27.475026957667012 116.12027547873797 114.01422213760091 H 0.0 **** 0.06
12990 H 26.27814346576497 115.25061951691328 113.02471827241709 H 0.0 **** 0.06
12991 C 131.20028164600367 64.25498448181784 132.76016969306625 C 0.0 **** -0.24
12992 H 132.17431602453308 63.786431335467114 132.61608919539268 H 0.0 **** 0.06
12993 H 130.68561480023862 63.77367481383365 133.5916077357297 H 0.0 **** 0.06
12994 H 130.60768985529128 64.14449913841901 131.85216686476969 H 0.0 **** 0.06
12995 H 131.33594650997588 65.31352182876041 132.97948655107797 H 0.0 **** 0.06
12996 C 71.78012937820347 74.05179981271003 81.23077941135703 C 0.0 **** -0.24
12997 H 72.5814859272574 73.40482672625012 80.87300754310742 H 0.0 **** 0.06
12998 H 70.84473374995662 73.4931317290539 81.2493578106725 H 0.0 **** 0.06
12999 H 71.67976361556492 74.90823473226169 80.5649024745414 H 0.0 **** 0.06
13000 H 72.01744631731003 74.3990104574881 82.23708983245078 H 0.0 **** 0.06
13001 C 57.751600518349505 114.51114484469136 31.769045237815547 C 0.0 **** -0.24
13002 H 56.67878161379781 114.32353689094563 31.747296742155186 H 0.0 **** 0.06
13003 H 58.14911075013839 114.2353245873175 32.74592393760612 H 0.0 **** 0.06
13004 H 57.93860512690287 115.56964296506476 31.586241489987174 H 0.0 **** 0.06
13005 H 58.23965297504526 113.91703350037238 30.996585084629913 H 0.0 **** 0.06
13006 C 39.18151212401892 91.37631629833822 24.96494883370692 C 0.0 **** -0.24
13007 H 39.86246305965514 90.62441985313558 25.364007412376182 H 0.0 **** 0.06
13008 H 39.69543963028593 91.96468327346037 24.204385211049406 H 0.0 **** 0.06
13009 H 38.85301066788355 92.03192577532656 25.77143639939073 H 0.0 **** 0.06
13010 H 38.316425141433456 90.88446927384513 24.521098431607136 H 0.0 **** 0.06
13011 C 123.53825496340664 30.40318506564421 19.768229376250666 C 0.0 **** -0.24
13012 H 122.62058859049736 30.898445627692354 20.087153531486997 H 0.0 **** 0.06
13013 H 124.39498073211789 31.02635879173259 20.02421500552464 H 0.0 **** 0.06
13014 H 123.51071718850972 30.2461728672902 18.6896418536234 H 0.0 **** 0.06
13015 H 123.62505150191456 29.440178583922588 20.27272030685039 H 0.0 **** 0.06
13016 C 47.853294647269365 164.28328543134577 128.88582357657236 C 0.0 **** -0.24
13017 H 47.96457465891727 163.22032667520256 129.10055744530737 H 0.0 **** 0.06
13018 H 48.59310242922592 164.58160518510044 128.14136604049563 H 0.0 **** 0.06
13019 H 48.00529169612015 164.8567619517108 129.79989728595106 H 0.0 **** 0.06
13020 H 46.85203449671785 164.47235004544282 128.4991779272662 H 0.0 **** 0.06
13021 C 139.76556649991034 149.71037126153334 46.53639256207737 C 0.0 **** -0.24
13022 H 139.827955047165 150.43986009165178 47.3441703244943 H 0.0 **** 0.06
13023 H 140.63609626213275 149.05502847532142 46.57071399919147 H 0.0 **** 0.06
13024 H 139.73775981010414 150.23074895415482 45.57959111965026 H 0.0 **** 0.06
13025 H 138.85888514199408 149.11643310689007 46.65337367292763 H 0.0 **** 0.06
13026 C 116.44289372036678 148.04171259642087 26.76583201080765 C 0.0 **** -0.24
13027 H 116.98621634047745 147.43018972464532 26.046641879427696 H 0.0 **** 0.06
13028 H 115.37050629359746 147.90484763893167 26.6216917491871 H 0.0 **** 0.06
13029 H 116.6991259055244 149.0909193160295 26.618609344211478 H 0.0 **** 0.06
13030 H 116.71454253334974 147.7401636996789 27.778136020920783 H 0.0 **** 0.06
13031 C 83.09725424752327 51.51144827009904 66.83857840508387 C 0.0 **** -0.24
13032 H 82.6077820894215 52.02253493986274 67.6668987380857 H 0.0 **** 0.06
13033 H 83.14400048556547 50.442115037332314 67.04824111959482 H 0.0 **** 0.06
13034 H 84.10807607301342 51.90291489200024 66.71743654529877 H 0.0 **** 0.06
13035 H 82.53036704588271 51.67856598300148 65.92238913853475 H 0.0 **** 0.06
13036 C 156.30274842419027 15.026663719449388 57.91326622964915 C 0.0 **** -0.24
13037 H 155.7609595587016 14.669945488875832 58.78937074448888 H 0.0 **** 0.06
13038 H 156.23744458565943 16.1144333909742 57.864360344649285 H 0.0 **** 0.06
13039 H 155.86444184209756 14.59476087710366 57.014098039901356 H 0.0 **** 0.06
13040 H 157.34906674380687 14.729047868014568 57.9874281141189 H 0.0 **** 0.06
13041 C 105.68160381637023 12.980527046353359 81.80765958615262 C 0.0 **** -0.24
13042 H 105.37198651226936 11.97149549469006 82.08362279987443 H 0.0 **** 0.06
13043 H 106.65211556058298 12.939654173100934 81.31270649758977 H 0.0 **** 0.06
13044 H 105.75670725697938 13.595005262887668 82.70527264467816 H 0.0 **** 0.06
13045 H 104.9452857231019 13.41309674444068 81.13069112906646 H 0.0 **** 0.06
13046 C 59.46289687824306 100.5522392875684 11.510308993356261 C 0.0 **** -0.24
13047 H 58.852034221192426 100.46102278262765 10.611561765440818 H 0.0 **** 0.06
13048 H 60.26449988020876 99.8150334862753 11.481771580530676 H 0.0 **** 0.06
13049 H 58.842052285352224 100.38145710779585 12.390234925127501 H 0.0 **** 0.06
13050 H 59.891627657262106 101.55341560971576 11.557192715115477 H 0.0 **** 0.06
13051 C 113.30997711637394 36.94916332284538 65.1630356363089 C 0.0 **** -0.24
13052 H 113.43785295395017 35.955046574090886 65.5910669873233 H 0.0 **** 0.06
13053 H 112.63441324119637 36.89202085802094 64.3093528009835 H 0.0 **** 0.06
13054 H 114.27764642247891 37.33122560113355 64.83620426620342 H 0.0 **** 0.06
13055 H 112.89123936251715 37.61795772268721 65.91497840517741 H 0.0 **** 0.06
13056 C 25.516207636305182 16.885579713386846 17.879130519150806 C 0.0 **** -0.24
13057 H 25.691858600567258 15.811663933155103 17.81765844545066 H 0.0 **** 0.06
13058 H 26.44460330703191 17.417574763164225 17.671032142154502 H 0.0 **** 0.06
13059 H 25.167463790917907 17.13852781847038 18.880997878691232 H 0.0 **** 0.06
13060 H 24.75956989992548 17.17260321038478 17.148682682256094 H 0.0 **** 0.06
13061 C 127.82616065172945 64.07403508176637 120.03186145807842 C 0.0 **** -0.24
13062 H 128.48941554365103 64.91889983949287 119.8517070236826 H 0.0 **** 0.06
13063 H 127.86896349063085 63.79604120247218 121.08537440541494 H 0.0 **** 0.06
13064 H 128.14156773808855 63.228215169688355 119.42039661836088 H 0.0 **** 0.06
13065 H 126.80532473772999 64.35065676536979 119.76953409123172 H 0.0 **** 0.06
13066 C 1.5234822529980647 52.28410128641377 49.05395527366032 C 0.0 **** -0.24
13067 H 2.169383437613419 52.87806866523738 48.40688679672408 H 0.0 **** 0.06
13068 H 1.3806187635007916 51.29658586136043 48.61505950343195 H 0.0 **** 0.06
13069 H 0.5573031961625361 52.779390903847286 49.15689917376173 H 0.0 **** 0.06
13070 H 1.986874743563618 52.183227906461354 50.034698924467065 H 0.0 **** 0.06
13071 C 30.689522681274553 21.159631777896323 10.547750181754736 C 0.0 **** -0.24
13072 H 30.041775725532844 21.80752356309756 9.958313786593749 H 0.0 **** 0.06
13073 H 30.459836141204278 20.117682746460616 10.327422103070091 H 0.0 **** 0.06
13074 H 30.527205961618535 21.35211598426872 11.608492521311064 H 0.0 **** 0.06
13075 H 31.730664512747722 21.36320762893621 10.296543580672221 H 0.0 **** 0.06
13076 C 124.43965744866048 168.78301332494104 134.66912477638988 C 0.0 **** -0.24
13077 H 125.29950986008333 169.27639698473573 134.2152860410085 H 0.0 **** 0.06
13078 H 123.63563963629974 169.50734167034545 134.80483413447791 H 0.0 **** 0.06
13079 H 124.72691850166112 168.37271696133396 135.63727619460965 H 0.0 **** 0.06
13080 H 124.09793272240873 167.97762711298304 134.01914905363336 H 0.0 **** 0.06
13081 C 104.36894543391591 147.38414380502897 14.347195249095186 C 0.0 **** -0.24
13082 H 105.14488495809064 146.76036143774067 14.791609036592675 H 0.0 **** 0.06
13083 H 103.43010178796041 146.82986035690308 14.319542230039119 H 0.0 **** 0.06
13084 H 104.66032385108915 147.65711053607822 13.332635746325465 H 0.0 **** 0.06
13085 H 104.24175567099246 148.2861881609947 14.944856440727314 H 0.0 **** 0.06
13086 C 95.32016675368996 114.20697409519241 161.41952685105355 C 0.0 **** -0.24
13087 H 95.07846864014601 115.20380418878744 161.05198509080034 H 0.0 **** 0.06
13088 H 96.3379613327649 113.94858007224761 161.12516322757534 H 0.0 **** 0.06
13089 H 94.62391635249179 113.48435475181432 160.9940860866971 H 0.0 **** 0.06
13090 H 95.24109528918686 114.19134975871782 162.50627049701146 H 0.0 **** 0.06
13091 C 97.65237817212233 15.749976622203448 152.60765288814906 C 0.0 **** -0.24
13092 H 97.07077651077537 16.38102350916205 153.2793302704041 H 0.0 **** 0.06
13093 H 98.41500631688433 15.217636159947553 153.17733189402526 H 0.0 **** 0.06
13094 H 98.13164407880299 16.370900170956233 151.8507775203978 H 0.0 **** 0.06
13095 H 96.99208578202666 15.03034664874788 152.1231718677689 H 0.0 **** 0.06
13096 C 14.686593663297458 1.901127157565611 14.156405207063777 C 0.0 **** -0.24
13097 H 15.141031684710526 1.6129633231606704 15.104878666697807 H 0.0 **** 0.06
13098 H 14.732177959513535 1.062431503372892 13.462666193342862 H 0.0 **** 0.06
13099 H 15.229154668022943 2.7496229154374987 13.738529970469834 H 0.0 **** 0.06
13100 H 13.646796056319317 2.180872306460799 14.322253754846962 H 0.0 **** 0.06
13101 C 121.49761119759447 114.76473857003361 127.88910196516846 C 0.0 **** -0.24
13102 H 122.02435337764146 114.55752777357188 128.82034765397077 H 0.0 **** 0.06
13103 H 122.22148124970099 114.95448278870848 127.0960524793569 H 0.0 **** 0.06
13104 H 120.86221960243032 115.64053474685014 128.01830623695622 H 0.0 **** 0.06
13105 H 120.8818267113297 113.90511876329404 127.62069276750606 H 0.0 **** 0.06
13106 C 53.74569015537192 14.982360471559076 42.83166052442077 C 0.0 **** -0.24
13107 H 53.89026968493927 13.904208368628133 42.895675900233655 H 0.0 **** 0.06
13108 H 54.6390597281118 15.490946820794079 43.19459568081899 H 0.0 **** 0.06
13109 H 52.88996093222991 15.270882869764819 43.442028041903995 H 0.0 **** 0.06
13110 H 53.5634702762067 15.263403827049444 41.794342474726335 H 0.0 **** 0.06
13111 C 68.95795362404547 69.505020596539 150.97497853378792 C 0.0 **** -0.24
13112 H 68.05396255481159 69.54800555110118 151.5830152462516 H 0.0 **** 0.06
13113 H 69.79156551505179 69.15945196897958 151.5864233197786 H 0.0 **** 0.06
13114 H 69.17988615399113 70.49783472943464 150.58409079515997 H 0.0 **** 0.06
13115 H 68.80373308485211 68.81445318260229 150.14505329946485 H 0.0 **** 0.06
13116 C 115.8686356624531 153.59463873006084 55.220682444195376 C 0.0 **** -0.24
13117 H 116.87849294736168 153.2962774841577 54.93928767947426 H 0.0 **** 0.06
13118 H 115.29579118312435 152.71229168585 55.50643773778944 H 0.0 **** 0.06
13119 H 115.38637884577076 154.08374898833392 54.37418453504017 H 0.0 **** 0.06
13120 H 115.91603500844471 154.28594254456942 56.062302033655214 H 0.0 **** 0.06
13121 C 46.91136179664275 58.529835238552124 155.34392845829282 C 0.0 **** -0.24
13122 H 47.704562406308966 59.06306444650842 154.82038898945788 H 0.0 **** 0.06
13123 H 46.171444589798895 59.244207518209365 155.70571288939985 H 0.0 **** 0.06
13124 H 47.33644813878672 57.98677606954017 156.18832086699518 H 0.0 **** 0.06
13125 H 46.43518433059543 57.82603438467986 154.66209377703956 H 0.0 **** 0.06
13126 C 142.48009021595837 143.02550254955878 149.50416479435876 C 0.0 **** -0.24
13127 H 142.49190096316977 143.45587346684522 148.50280144152612 H 0.0 **** 0.06
13128 H 141.93611555730627 143.68826514222417 150.17739098943028 H 0.0 **** 0.06
13129 H 143.5028078289284 142.90471607988422 149.86023848937683 H 0.0 **** 0.06
13130 H 141.9881661643891 142.0521989607663 149.4757730214465 H 0.0 **** 0.06
13131 C 166.34524051334114 136.55581994654457 125.65315906386326 C 0.0 **** -0.24
13132 H 165.5603923652067 135.80235394183526 125.71654311799733 H 0.0 **** 0.06
13133 H 166.1901422044388 137.16900541286975 124.76452397071228 H 0.0 **** 0.06
13134 H 167.31646464855956 136.06341308564464 125.58942998884476 H 0.0 **** 0.06
13135 H 166.31656186063395 137.18693076861265 126.54081261161122 H 0.0 **** 0.06
13136 C 42.56586007727964 152.2198948812858 80.2877753529936 C 0.0 **** -0.24
13137 H 41.64803398588009 152.07808096278762 79.71751115744652 H 0.0 **** 0.06
13138 H 43.11876225054516 151.28185528195982 80.32503191375253 H 0.0 **** 0.06
13139 H 42.318023102827254 152.53662593233332 81.30149745294818 H 0.0 **** 0.06
13140 H 43.17694723657064 152.9839290437902 79.8082303182079 H 0.0 **** 0.06
13141 C 66.32617320330637 60.82909058804535 30.252574659649042 C 0.0 **** -0.24
13142 H 67.08347187453042 60.047154192123145 30.309296625852312 H 0.0 **** 0.06
13143 H 66.42479831646561 61.49285659105033 31.111855161769597 H 0.0 **** 0.06
13144 H 65.33496390330536 60.37514216162896 30.25505414671352 H 0.0 **** 0.06
13145 H 66.46235700691109 61.40077428229398 29.334031281265084 H 0.0 **** 0.06
13146 C 71.63490835732769 93.4518687637736 8.10696019985182 C 0.0 **** -0.24
13147 H 71.50282301870595 94.5290084186345 7.997951700393479 H 0.0 **** 0.06
13148 H 71.96453487614093 93.02914573193317 7.156809244349361 H 0.0 **** 0.06
13149 H 70.68828903550992 92.99800434712265 8.398104667061652 H 0.0 **** 0.06
13150 H 72.38525940056711 93.25336959247636 8.872298411259777 H 0.0 **** 0.06
13151 C 164.62932836805396 68.34412927854032 105.81728217358835 C 0.0 **** -0.24
13152 H 164.11559835952312 68.40997974234648 106.77675306962783 H 0.0 **** 0.06
13153 H 164.50174792573114 67.34248922216773 105.40619261419596 H 0.0 **** 0.06
13154 H 165.6903876582425 68.54608444888498 105.95918862051727 H 0.0 **** 0.06
13155 H 164.20788081789306 69.07614198289508 105.12866650751124 H 0.0 **** 0.06
13156 C 151.52253494149778 166.1859362422914 123.20407876782241 C 0.0 **** -0.24
13157 H 152.27759744908994 165.65600791625386 123.7849021225563 H 0.0 **** 0.06
13158 H 150.9391140419397 166.82607876183206 123.86677917378051 H 0.0 **** 0.06
13159 H 150.8638894691013 165.46486656062322 122.72158130898788 H 0.0 **** 0.06
13160 H 152.0107950310885 166.79684467633288 122.4455861033432 H 0.0 **** 0.06
13161 C 6.325530488007729 74.16762795472765 143.1925929032661 C 0.0 **** -0.24
13162 H 6.017386089382462 75.2116590981973 143.24096813973185 H 0.0 **** 0.06
13163 H 7.368835251229044 74.08183976483589 143.49499945074277 H 0.0 **** 0.06
13164 H 6.2123792189324405 73.80229051912464 142.17134045406485 H 0.0 **** 0.06
13165 H 5.703253380913907 73.57416783840651 143.86179052244 H 0.0 **** 0.06
13166 C 30.803666338361936 36.50414818585335 115.72004149049238 C 0.0 **** -0.24
13167 H 30.505472705441875 35.52571864672052 116.09689475599166 H 0.0 **** 0.06
13168 H 29.927214876397045 37.03119639109585 115.34303856144541 H 0.0 **** 0.06
13169 H 31.527019287720407 36.376747544223576 114.9142389145855 H 0.0 **** 0.06
13170 H 31.256735635086244 37.08052096800051 116.52579937897849 H 0.0 **** 0.06
13171 C 94.02839391750302 28.644406211422734 154.12853380292518 C 0.0 **** -0.24
13172 H 93.11855522582701 29.237406828239273 154.0418679106046 H 0.0 **** 0.06
13173 H 94.78793037909622 29.219598476967974 154.6577704217108 H 0.0 **** 0.06
13174 H 94.39264736544908 28.391003927660677 153.1318608609572 H 0.0 **** 0.06
13175 H 93.81563652732086 27.728944684556552 154.68060505847774 H 0.0 **** 0.06
13176 C 137.48653701245718 27.510048780436364 54.56671002338642 C 0.0 **** -0.24
13177 H 136.84895951368668 26.88499630778918 53.94153123064868 H 0.0 **** 0.06
13178 H 137.7079774272146 28.441097238264206 54.04291983953354 H 0.0 **** 0.06
13179 H 138.4168535264576 26.982912732910222 54.77866039793288 H 0.0 **** 0.06
13180 H 136.97418833410973 27.73236094735617 55.502599605106894 H 0.0 **** 0.06
13181 C 56.16474134840098 78.14215703909008 25.14644598835997 C 0.0 **** -0.24
13182 H 55.35573603286659 78.80790249949467 25.445577298678103 H 0.0 **** 0.06
13183 H 55.765107990639436 77.3388664169519 24.526930403606002 H 0.0 **** 0.06
13184 H 56.632445330534736 77.71711117608515 26.035765529269355 H 0.0 **** 0.06
13185 H 56.90700188956515 78.70397523533751 24.580088532834367 H 0.0 **** 0.06
13186 C 61.85720331088055 28.764607350279007 171.9397871466167 C 0.0 **** -0.24
13187 H 61.48179487481917 28.244148787483923 172.82019474694152 H 0.0 **** 0.06
13188 H 62.763339422921206 29.312442387968275 172.19883021007934 H 0.0 **** 0.06
13189 H 61.101036648260504 29.462012754116785 171.57995405586257 H 0.0 **** 0.06
13190 H 62.082535211917275 28.03944038440102 171.15775287994234 H 0.0 **** 0.06
13191 C 20.425281036828153 64.30461202223165 142.70975033161642 C 0.0 **** -0.24
13192 H 20.020598203229213 64.93035219496475 141.91409259522925 H 0.0 **** 0.06
13193 H 20.769938215172772 63.35921550828715 142.29020646120648 H 0.0 **** 0.06
13194 H 19.648448390607058 64.11144688531905 143.45047800934972 H 0.0 **** 0.06
13195 H 21.260403655559855 64.81809630558983 143.1865797534145 H 0.0 **** 0.06
13196 C 73.34563293995585 96.89866629822401 128.30284703768473 C 0.0 **** -0.24
13197 H 74.09882566039448 96.97564886663034 129.08715029674494 H 0.0 **** 0.06
13198 H 73.83640269008895 96.86915260107148 127.32927052798232 H 0.0 **** 0.06
13199 H 72.68371707524622 97.76365229770565 128.34989813954334 H 0.0 **** 0.06
13200 H 72.7652292837757 95.9877277410302 128.44510979736947 H 0.0 **** 0.06
13201 C 90.61349093595419 134.35100184039476 75.59106219412541 C 0.0 **** -0.24
13202 H 91.2405880025515 135.2028420109446 75.85404655918404 H 0.0 **** 0.06
13203 H 89.73615865632917 134.6995597302635 75.04654622339893 H 0.0 **** 0.06
13204 H 90.29832109229929 133.83792571023974 76.5002679304389 H 0.0 **** 0.06
13205 H 91.1809883465259 133.66226537093814 74.96466138886205 H 0.0 **** 0.06
13206 C 113.65031006826993 170.94399567995623 14.79432473470603 C 0.0 **** -0.24
13207 H 112.8800816818671 170.4451008831308 15.382630270674952 H 0.0 **** 0.06
13208 H 114.26610819250291 170.19556213928888 14.293726949805887 H 0.0 **** 0.06
13209 H 114.27538328299826 171.5476969449223 15.4521776357779 H 0.0 **** 0.06
13210 H 113.18064790421036 171.5855002172745 14.049494196118872 H 0.0 **** 0.06
13211 C 170.1246162858423 156.51500413207265 169.37291856892983 C 0.0 **** -0.24
13212 H 170.97802567491556 157.1529767142962 169.60196785399435 H 0.0 **** 0.06
13213 H 169.23823972478291 157.13128537004613 169.2262141667453 H 0.0 **** 0.06
13214 H 169.95442219342695 155.82559654341594 170.2005497451813 H 0.0 **** 0.06
13215 H 170.3286784415922 155.9478595196014 168.46464723595298 H 0.0 **** 0.06
13216 C 63.88417609761689 50.61664501985912 8.609022146770826 C 0.0 **** -0.24
13217 H 63.219059975551374 50.27352213492129 7.815694059812927 H 0.0 **** 0.06
13218 H 64.90950633943713 50.63761958736855 8.237538373848395 H 0.0 **** 0.06
13219 H 63.81867207643013 49.93639316763813 9.457745190616322 H 0.0 **** 0.06
13220 H 63.59019116787293 51.618432038254554 8.920856705359057 H 0.0 **** 0.06
13221 C 93.5640883197326 63.5361594478083 55.938245173524706 C 0.0 **** -0.24
13222 H 93.01724226510993 64.38096508605234 55.51949344420274 H 0.0 **** 0.06
13223 H 94.4235985242081 63.31095143262249 55.30681683599761 H 0.0 **** 0.06
13224 H 92.90779433508015 62.665597050532725 55.9832737613915 H 0.0 **** 0.06
13225 H 93.90607355044637 63.78557644478009 56.94244805850016 H 0.0 **** 0.06
13226 C 126.25807073574165 150.46339752029604 25.9009578552145 C 0.0 **** -0.24
13227 H 126.2734038292268 151.0324242343834 24.971160193127417 H 0.0 **** 0.06
13228 H 125.55939601158278 149.6313684576553 25.805650495281412 H 0.0 **** 0.06
13229 H 125.94368235842839 151.1113563765833 26.71775427464391 H 0.0 **** 0.06
13230 H 127.25650055107181 150.07699710769003 26.106731569288854 H 0.0 **** 0.06
13231 C 167.20634233911258 86.61973058232132 126.81502225648177 C 0.0 **** -0.24
13232 H 167.09713195136524 87.64453954006893 127.16766064347735 H 0.0 **** 0.06
13233 H 166.25305015188667 86.09943996491478 126.90905347487558 H 0.0 **** 0.06
13234 H 167.9604176508436 86.10828995098433 127.41312432551126 H 0.0 **** 0.06
13235 H 167.5158118087587 86.62624927373332 125.76938399735747 H 0.0 **** 0.06
13236 C 36.313473061489645 144.19961243806023 46.14394563264648 C 0.0 **** -0.24
13237 H 37.144803971782025 144.57158618553305 45.54571523143912 H 0.0 **** 0.06
13238 H 36.31459227619092 143.11008011151822 46.12920726911645 H 0.0 **** 0.06
13239 H 35.37422458856064 144.56889102803635 45.73100394030482 H 0.0 **** 0.06
13240 H 36.42013222148029 144.5495098458246 47.17139385538286 H 0.0 **** 0.06
13241 C 102.83612815017514 139.63724555952206 152.04781813296577 C 0.0 **** -0.24
13242 H 103.01582369192292 138.70220798385895 152.57812127376778 H 0.0 **** 0.06
13243 H 103.7523955638662 140.22832916717493 152.0334511864536 H 0.0 **** 0.06
13244 H 102.0505352530077 140.19678875338946 152.55556058499337 H 0.0 **** 0.06
13245 H 102.5262702190395 139.42142167127463 151.02577739481256 H 0.0 **** 0.06
13246 C 94.07454123491527 170.72265998494018 70.01415898731682 C 0.0 **** -0.24
13247 H 94.56901750243628 171.68986866372657 70.10624475211625 H 0.0 **** 0.06
13248 H 94.82690173808504 169.93917359337024 69.91788353756994 H 0.0 **** 0.06
13249 H 93.43639132925199 170.72386284597184 69.13159602546892 H 0.0 **** 0.06
13250 H 93.4690687943891 170.53953124383096 70.90157555245179 H 0.0 **** 0.06
13251 C 56.72816480948171 171.64830423324844 83.93535665149598 C 0.0 **** -0.24
13252 H 57.02426308457217 171.0709077288618 83.05863701683504 H 0.0 **** 0.06
13253 H 56.64089388162239 170.9824467195296 84.79487208916355 H 0.0 **** 0.06
13254 H 55.76817633379281 172.1271893873217 83.74653059978739 H 0.0 **** 0.06
13255 H 57.48110046019167 172.40957060757626 84.13933115136808 H 0.0 **** 0.06
13256 C 123.5264156347578 15.220511122022515 159.2040323813789 C 0.0 **** -0.24
13257 H 123.84201387953809 14.469924925422504 158.478687413486 H 0.0 **** 0.06
13258 H 124.10639913867905 15.10800375708942 160.11979020986232 H 0.0 **** 0.06
13259 H 122.46744948920028 15.086924274199873 159.42614824144562 H 0.0 **** 0.06
13260 H 123.68795030426551 16.215851950579435 158.7906181102653 H 0.0 **** 0.06
13261 C 150.67227197870272 155.86030186503407 144.27611903031107 C 0.0 **** -0.24
13262 H 150.30705470945125 155.51533997368668 145.24327869436598 H 0.0 **** 0.06
13263 H 149.86680799745847 155.8020698102023 143.5432015574351 H 0.0 **** 0.06
13264 H 151.50112469726548 155.23030867945272 143.95517681079963 H 0.0 **** 0.06
13265 H 151.01228979648602 156.8922705223271 144.36233246445943 H 0.0 **** 0.06
13266 C 62.32675118602717 40.33806074264447 123.42080033483927 C 0.0 **** -0.24
13267 H 61.58852761074347 40.40600924213979 122.62242065788769 H 0.0 **** 0.06
13268 H 61.82960398462379 40.443028559343645 124.38585403371286 H 0.0 **** 0.06
13269 H 63.06252340428907 41.133861850579876 123.30327997592138 H 0.0 **** 0.06
13270 H 62.826556431973245 39.37017534253681 123.37277142610134 H 0.0 **** 0.06
13271 C 63.43311886663953 60.89556373014534 15.251810172170266 C 0.0 **** -0.24
13272 H 64.4024954315397 61.26828144331709 15.583818887879168 H 0.0 **** 0.06
13273 H 62.67143375387971 61.654105173474676 15.433482584460783 H 0.0 **** 0.06
13274 H 63.184594381365656 59.98958740447503 15.804239038454092 H 0.0 **** 0.06
13275 H 63.476498895416725 60.67195749237561 14.18653810880216 H 0.0 **** 0.06
13276 C 12.796099155737778 101.52484805562744 166.24710389055417 C 0.0 **** -0.24
13277 H 12.413466768324724 100.71567381214874 165.6252062463109 H 0.0 **** 0.06
13278 H 13.75094333888876 101.86912963401056 165.84949985069267 H 0.0 **** 0.06
13279 H 12.935764144698624 101.16480828716846 167.26689811945118 H 0.0 **** 0.06
13280 H 12.083377534700332 102.35029470820274 166.24881683074545 H 0.0 **** 0.06
13281 C 78.59582027912705 31.65649145142757 102.87709316286927 C 0.0 **** -0.24
13282 H 78.48500067082136 32.73979982145892 102.81632956576982 H 0.0 **** 0.06
13283 H 77.85973265841335 31.179744844523555 102.23013345751372 H 0.0 **** 0.06
13284 H 78.44072143228362 31.33248800993843 103.90595626766233 H 0.0 **** 0.06
13285 H 79.59895836080545 31.375778935927855 102.55539505757358 H 0.0 **** 0.06
13286 C 46.377775812257326 43.07033618983769 101.1708195718536 C 0.0 **** -0.24
13287 H 47.20943316744844 42.53305152973522 101.62577715295637 H 0.0 **** 0.06
13288 H 46.37153052562985 42.885117173604655 100.09573159643637 H 0.0 **** 0.06
13289 H 46.49085163973527 44.139061921424286 101.3539762376 H 0.0 **** 0.06
13290 H 45.4407090234792 42.72371676437368 101.60482297075791 H 0.0 **** 0.06
13291 C 61.17911552186999 82.85770583258864 167.9357672767756 C 0.0 **** -0.24
13292 H 61.234356747152034 82.05654538915581 168.67278120868872 H 0.0 **** 0.06
13293 H 60.20860122743356 82.8286844961064 167.44105833823096 H 0.0 **** 0.06
13294 H 61.96893282986045 82.72483159095486 167.19638764341278 H 0.0 **** 0.06
13295 H 61.306040911239265 83.81855369881015 168.43382398929418 H 0.0 **** 0.06
13296 C 79.55861525002604 163.48383230540787 73.2358427772865 C 0.0 **** -0.24
13297 H 79.20382658491448 162.7220535347593 73.93031473717406 H 0.0 **** 0.06
13298 H 79.72426035575555 163.03356252115202 72.25705883378653 H 0.0 **** 0.06
13299 H 80.49378091692466 163.9046576348926 73.60582306599916 H 0.0 **** 0.06
13300 H 78.81197075471053 164.27364047752553 73.15144347545933 H 0.0 **** 0.06
13301 C 96.09631734914018 85.05215476202517 17.54210959347818 C 0.0 **** -0.24
13302 H 95.24616700960291 84.37028674794533 17.582614298755757 H 0.0 **** 0.06
13303 H 96.97492224254205 84.51424514801641 17.18488851942591 H 0.0 **** 0.06
13304 H 96.29212920502141 85.44883972838778 18.53802421033354 H 0.0 **** 0.06
13305 H 95.8707979904039 85.87293368791364 16.86089217414343 H 0.0 **** 0.06
13306 C 55.434950427579 143.7792055677237 49.39064162154477 C 0.0 **** -0.24
13307 H 56.02418602961501 143.48175794770486 48.52269892258636 H 0.0 **** 0.06
13308 H 54.484067910627004 143.24577931158194 49.3842329041633 H 0.0 **** 0.06
13309 H 55.25069633765702 144.85296556399078 49.3533979479829 H 0.0 **** 0.06
13310 H 55.98209516617226 143.53620253398606 50.301573753369155 H 0.0 **** 0.06
13311 C 161.0015724057908 71.73449995132171 69.67721313672503 C 0.0 **** -0.24
13312 H 160.72431194061 72.47441014438616 68.92668684639726 H 0.0 **** 0.06
13313 H 162.0496298681881 71.46125837298786 69.54631684371114 H 0.0 **** 0.06
13314 H 160.37844233400534 70.84888548317033 69.56260054373192 H 0.0 **** 0.06
13315 H 160.8580014121547 72.15526431634575 70.6718637651984 H 0.0 **** 0.06
13316 C 162.3571390447598 29.95404113185603 87.42875123254747 C 0.0 **** -0.24
13317 H 162.97304930899517 30.716766286088443 87.90595568616038 H 0.0 **** 0.06
13318 H 162.99436028054086 29.14530643784755 87.07072262816753 H 0.0 **** 0.06
13319 H 161.8216452242109 30.39479385047929 86.58721238913537 H 0.0 **** 0.06
13320 H 161.64065344933763 29.56197819069655 88.1504147414327 H 0.0 **** 0.06
13321 C 62.22190711133152 17.724521689950215 23.185940045534956 C 0.0 **** -0.24
13322 H 61.60973848988192 18.474514014637357 22.686566202364972 H 0.0 **** 0.06
13323 H 63.148948476069506 17.583466578214214 22.62942142587353 H 0.0 **** 0.06
13324 H 61.67643493616953 16.781595234816415 23.23014417842748 H 0.0 **** 0.06
13325 H 62.452506543205175 18.05851093213284 24.19762837547396 H 0.0 **** 0.06
13326 C 87.51159128265158 124.04785072075074 2.708697708648856 C 0.0 **** -0.24
13327 H 88.07702426529004 123.12366503295962 2.5933135027883907 H 0.0 **** 0.06
13328 H 86.49378756333579 123.89881463177846 2.3457995598035097 H 0.0 **** 0.06
13329 H 87.99021366788408 124.83999976653647 2.132562569944838 H 0.0 **** 0.06
13330 H 87.48518789009994 124.32966672543517 3.7610117150453277 H 0.0 **** 0.06
13331 C 148.2675956945316 31.631979030296876 160.47560261109265 C 0.0 **** -0.24
13332 H 149.06000674291295 32.322834571195344 160.1866483699491 H 0.0 **** 0.06
13333 H 148.26193475264233 30.780404758868144 159.79456558956974 H 0.0 **** 0.06
13334 H 147.30617598829062 32.14210985416743 160.42787588146837 H 0.0 **** 0.06
13335 H 148.4442274095678 31.282586323780066 161.49293351233808 H 0.0 **** 0.06
13336 C 58.31442281260753 168.26704514637763 142.9006548366597 C 0.0 **** -0.24
13337 H 58.986250290021616 168.2990603026514 143.7577108572388 H 0.0 **** 0.06
13338 H 57.71734192542489 167.35560376018967 142.94079483398176 H 0.0 **** 0.06
13339 H 58.897985693656494 168.27851184718952 141.9806102522482 H 0.0 **** 0.06
13340 H 57.655276539115505 169.13452318411 142.923242719355 H 0.0 **** 0.06
13341 C 53.52914959113308 29.87791530276826 63.64664977331755 C 0.0 **** -0.24
13342 H 52.76813459052964 29.527891247553214 64.343475067182 H 0.0 **** 0.06
13343 H 53.97429225822326 30.797439553727088 64.02550768590426 H 0.0 **** 0.06
13344 H 53.07182068770571 30.06943627237979 62.67475870866956 H 0.0 **** 0.06
13345 H 54.302253298891046 29.11603713039665 63.53998425746637 H 0.0 **** 0.06
13346 C 12.02044874357194 98.32676499595095 15.700445162986284 C 0.0 **** -0.24
13347 H 12.022795534573156 97.6050364422668 14.884263477946234 H 0.0 **** 0.06
13348 H 13.019832078880953 98.74823004713909 15.814797177057699 H 0.0 **** 0.06
13349 H 11.728501848068056 97.82855303473292 16.625052670936782 H 0.0 **** 0.06
13350 H 11.311996081742748 99.12490458193275 15.478724140151371 H 0.0 **** 0.06
13351 C 143.1337726514458 111.0513501119888 167.59915020426135 C 0.0 **** -0.24
13352 H 143.21350581171274 111.94889752292124 168.2128092831771 H 0.0 **** 0.06
13353 H 143.73893505438883 110.25736098315289 168.03612949449388 H 0.0 **** 0.06
13354 H 143.49021033241957 111.2674816016102 166.59185603066243 H 0.0 **** 0.06
13355 H 142.09244503323333 110.73303517301076 167.55547455864132 H 0.0 **** 0.06
13356 C 162.00038554593522 11.470379913061663 57.416500176868354 C 0.0 **** -0.24
13357 H 162.08067317697467 10.891937843795347 58.33710751258771 H 0.0 **** 0.06
13358 H 162.98289828045782 11.549524624778343 56.950768454453694 H 0.0 **** 0.06
13359 H 161.62563687114167 12.468338386432123 57.646686049246185 H 0.0 **** 0.06
13360 H 161.31209566903817 10.973070300670116 56.73346769918007 H 0.0 **** 0.06
13361 C 93.26814050197581 131.20717290822589 77.06887411559265 C 0.0 **** -0.24
13362 H 93.14992336262898 132.28292352368115 77.19563169295587 H 0.0 **** 0.06
13363 H 94.32925741796831 130.9579893440396 77.05485158721406 H 0.0 **** 0.06
13364 H 92.8096874635784 130.89978351802904 76.12904287800602 H 0.0 **** 0.06
13365 H 92.78442480881134 130.6886669915393 77.8958504688993 H 0.0 **** 0.06
13366 C 161.52867674390632 172.7544212527905 20.936008256982774 C 0.0 **** -0.24
13367 H 162.5236560914932 173.19405093534434 20.997016402046548 H 0.0 **** 0.06
13368 H 161.59755531816123 171.67698902572505 21.08448623674603 H 0.0 **** 0.06
13369 H 161.1007314309317 172.95969357269618 19.95392459702252 H 0.0 **** 0.06
13370 H 160.89189526506016 173.187799583688 21.707370533247 H 0.0 **** 0.06
13371 C 54.34838550518468 36.960908535918094 34.06998126352268 C 0.0 **** -0.24
13372 H 55.30410068950418 36.65623305971576 34.4969608152892 H 0.0 **** 0.06
13373 H 54.520194903330776 37.69464345576043 33.282719063889004 H 0.0 **** 0.06
13374 H 53.72707592440139 37.40221935615284 34.849607689213 H 0.0 **** 0.06
13375 H 53.843182828100936 36.08923834659669 33.6521492834372 H 0.0 **** 0.06
13376 C 63.587237247365934 18.801230257622244 81.18835690969938 C 0.0 **** -0.24
13377 H 63.39488226595569 19.507003111017774 81.99783729180106 H 0.0 **** 0.06
13378 H 63.25979619492627 19.235863414400953 80.24340845199241 H 0.0 **** 0.06
13379 H 63.03972944791751 17.877541092831123 81.37449585718034 H 0.0 **** 0.06
13380 H 64.6551247204389 18.587217391355765 81.14074354275311 H 0.0 **** 0.06
13381 C 11.770416806544262 38.99010459658503 99.46270388520577 C 0.0 **** -0.24
13382 H 11.353697162051219 37.98547083263675 99.38735179323785 H 0.0 **** 0.06
13383 H 12.01881359577942 39.355426624740105 98.46653220343171 H 0.0 **** 0.06
13384 H 12.670344977152922 38.963687353571274 100.0763687575259 H 0.0 **** 0.06
13385 H 11.036583177200924 39.65318149665703 99.92060060616319 H 0.0 **** 0.06
13386 C 134.4318670040863 89.12374889979992 84.38190267083604 C 0.0 **** -0.24
13387 H 134.80946250723642 89.79816533536325 85.1500454144022 H 0.0 **** 0.06
13388 H 133.42974717456255 89.43523698125045 84.08536559363807 H 0.0 **** 0.06
13389 H 134.39499755375238 88.10834910084179 84.77673945005705 H 0.0 **** 0.06
13390 H 135.09313407661207 89.1526673388492 83.51626721115542 H 0.0 **** 0.06
13391 C 122.25701371885839 66.6762121966086 50.655143344072 C 0.0 **** -0.24
13392 H 122.91579227317663 67.52566468157448 50.47219115609204 H 0.0 **** 0.06
13393 H 121.22771256550652 67.02516578994583 50.734432019479755 H 0.0 **** 0.06
13394 H 122.54757234177768 66.18536003352715 51.58460612333171 H 0.0 **** 0.06
13395 H 122.33993184627067 65.96875244970212 49.829858250335974 H 0.0 **** 0.06
13396 C 166.49835282799225 159.87446769904784 155.07374546191778 C 0.0 **** -0.24
13397 H 166.89404411950562 160.38652261583104 155.95143639685384 H 0.0 **** 0.06
13398 H 165.94348737844157 158.99142954416453 155.38779495395332 H 0.0 **** 0.06
13399 H 167.32281675561612 159.57496803536569 154.42672276689868 H 0.0 **** 0.06
13400 H 165.83499680313957 160.5472397422636 154.53003804779712 H 0.0 **** 0.06
13401 C 152.0042358166515 0.9678694160407701 2.5536357973235226 C 0.0 **** -0.24
13402 H 152.2488392198165 -0.013120361464302732 2.1456254644397177 H 0.0 **** 0.06
13403 H 152.83528731274228 1.6510844791576744 2.379125719480612 H 0.0 **** 0.06
13404 H 151.8252685736593 0.8804591081732838 3.625350476207359 H 0.0 **** 0.06
13405 H 151.10873652003363 1.35207415982876 2.0660623299368126 H 0.0 **** 0.06
13406 C 172.653510612881 104.37956411422681 148.86312031630453 C 0.0 **** -0.24
13407 H 173.10906212997068 105.2876250763288 149.25705212074013 H 0.0 **** 0.06
13408 H 171.8529766432731 104.64548346401207 148.17168955983294 H 0.0 **** 0.06
13409 H 172.2429911871854 103.79318748545307 149.6857231740293 H 0.0 **** 0.06
13410 H 173.40728235987328 103.79305237062079 148.33936343758631 H 0.0 **** 0.06
13411 C 107.59210241513182 123.77127248474187 128.17330837016357 C 0.0 **** -0.24
13412 H 107.02253787437343 124.08908448489751 129.0469358458702 H 0.0 **** 0.06
13413 H 107.10987477245754 122.9036457556042 127.7225594872076 H 0.0 **** 0.06
13414 H 108.6053033020143 123.50806549563362 128.47726927675714 H 0.0 **** 0.06
13415 H 107.63043248993267 124.5843117223252 127.44890436334774 H 0.0 **** 0.06
13416 C 131.3512190037165 65.05981111520073 42.44292487456937 C 0.0 **** -0.24
13417 H 130.3485322318915 65.14638766988216 42.86035737873726 H 0.0 **** 0.06
13418 H 131.2873487538036 64.69169370613326 41.41879628964375 H 0.0 **** 0.06
13419 H 131.9367604990196 64.36367479064349 43.043742292367256 H 0.0 **** 0.06
13420 H 131.83258628294539 66.03773963337832 42.44745700330225 H 0.0 **** 0.06
13421 C 105.07988382178874 171.97981594385402 122.04673630931234 C 0.0 **** -0.24
13422 H 105.5667448531714 172.33771937425192 121.13947192669266 H 0.0 **** 0.06
13423 H 104.11482011432099 171.54053599314793 121.79173163272347 H 0.0 **** 0.06
13424 H 104.93053147959446 172.8133153496572 122.73295915838187 H 0.0 **** 0.06
13425 H 105.70783043296325 171.22622312128507 122.52195425391548 H 0.0 **** 0.06
13426 C 107.43843139991503 129.1976935004782 61.21511995759046 C 0.0 **** -0.24
13427 H 107.28484599474533 128.1260892940956 61.34267831987805 H 0.0 **** 0.06
13428 H 106.53524846276838 129.64745297270662 60.801225987440986 H 0.0 **** 0.06
13429 H 108.27268257583492 129.36558203587833 60.53430090066834 H 0.0 **** 0.06
13430 H 107.660799920789 129.64958387666397 62.18143175744808 H 0.0 **** 0.06
13431 C 14.919019633478769 68.90684889932912 5.244504514234457 C 0.0 **** -0.24
13432 H 14.223475442905283 68.13081204795213 5.562347619528786 H 0.0 **** 0.06
13433 H 15.38745126572121 69.35551209293095 6.12030775699143 H 0.0 **** 0.06
13434 H 14.378932883234086 69.67329039441067 4.687177888670838 H 0.0 **** 0.06
13435 H 15.685932676355264 68.4674424671588 4.60623453094513 H 0.0 **** 0.06
13436 C 72.95084197176847 130.40498505834177 111.66054605413427 C 0.0 **** -0.24
13437 H 74.01865581763239 130.52776799022664 111.47777804790658 H 0.0 **** 0.06
13438 H 72.53489407075249 131.3449844182289 112.02546766065342 H 0.0 **** 0.06
13439 H 72.79624683325383 129.6244493627167 112.40463577976251 H 0.0 **** 0.06
13440 H 72.45418601298397 130.12467471024286 110.73071477882371 H 0.0 **** 0.06
13441 C 48.56251584664071 69.44919979403599 44.298797722676056 C 0.0 **** -0.24
13442 H 48.27121583305981 70.24033180768998 43.60770248233587 H 0.0 **** 0.06
13443 H 48.807947721284194 68.54802172598258 43.736244178758966 H 0.0 **** 0.06
13444 H 47.73821701555168 69.240462775292 44.980068192475926 H 0.0 **** 0.06
13445 H 49.43473028155351 69.76988076628643 44.87007780313962 H 0.0 **** 0.06
13446 C 84.74381166479301 98.7617089961438 105.82666410326217 C 0.0 **** -0.24
13447 H 84.0981337032989 99.53723859061205 106.23905713408283 H 0.0 **** 0.06
13448 H 85.54418337827995 99.22503062006302 105.24952947002285 H 0.0 **** 0.06
13449 H 84.15923379227384 98.10816518197328 105.17972410695688 H 0.0 **** 0.06
13450 H 85.17311375189071 98.17795396742173 106.64138736314288 H 0.0 **** 0.06
13451 C 53.72969794673958 157.6085815566769 155.5522603098068 C 0.0 **** -0.24
13452 H 53.074773118746435 156.953523927327 154.97677774031945 H 0.0 **** 0.06
13453 H 54.566619924202115 157.9231389360138 154.9290039931587 H 0.0 **** 0.06
13454 H 54.10520868755836 157.07125339136044 156.42288726818546 H 0.0 **** 0.06
13455 H 53.170146985612575 158.484770987812 155.8793046159956 H 0.0 **** 0.06
13456 C 9.791134573807568 116.574761881457 115.18137141297379 C 0.0 **** -0.24
13457 H 10.604675154232957 117.09740151846654 114.67805667536473 H 0.0 **** 0.06
13458 H 10.127679251363702 116.23830735216166 116.1628255687128 H 0.0 **** 0.06
13459 H 9.490409623466789 115.713551354608 114.58596728430024 H 0.0 **** 0.06
13460 H 8.943866589593078 117.25048937097864 115.29899587275156 H 0.0 **** 0.06
13461 C 48.79669006514652 45.5422799868542 110.07471740844309 C 0.0 **** -0.24
13462 H 48.89414173700587 44.65324288571095 110.69831616389678 H 0.0 **** 0.06
13463 H 49.236967866264536 46.39601490109571 110.58883831743088 H 0.0 **** 0.06
13464 H 47.741495914197884 45.737434763303426 109.88384022827589 H 0.0 **** 0.06
13465 H 49.312944321574946 45.38063267578829 109.12843527586176 H 0.0 **** 0.06
13466 C 37.4544075350299 142.04875263603805 71.59505332031506 C 0.0 **** -0.24
13467 H 36.70725671374605 142.74086695252558 71.98403355249485 H 0.0 **** 0.06
13468 H 37.02386895564155 141.4732144779778 70.77572094575268 H 0.0 **** 0.06
13469 H 37.77081920196569 141.37252698670468 72.38878167036222 H 0.0 **** 0.06
13470 H 38.315005515198806 142.61131900540386 71.23185033656242 H 0.0 **** 0.06
13471 C 28.133204326024753 14.351593052066733 158.10715637955212 C 0.0 **** -0.24
13472 H 27.499789435044477 15.223699802503347 157.9457204182936 H 0.0 **** 0.06
13473 H 28.001484081540696 13.649349566965952 157.28340151503266 H 0.0 **** 0.06
13474 H 27.85309147842497 13.869356513175944 159.0434094883522 H 0.0 **** 0.06
13475 H 29.176233063447285 14.66369947327371 158.15603182080616 H 0.0 **** 0.06
13476 C 46.799801489143036 162.2917136422293 48.48949111547326 C 0.0 **** -0.24
13477 H 46.03796016817731 162.8387780939308 49.045244194350744 H 0.0 **** 0.06
13478 H 46.39398621085505 161.33325637461573 48.16512585333297 H 0.0 **** 0.06
13479 H 47.66543759936725 162.1223909435337 49.129042601458664 H 0.0 **** 0.06
13480 H 47.09972204705721 162.87269036159995 47.61731802631306 H 0.0 **** 0.06
13481 C 139.840961173422 36.66316576024826 73.6854282090874 C 0.0 **** -0.24
13482 H 138.8985198983428 36.392582517555866 73.20865640399727 H 0.0 **** 0.06
13483 H 140.01315912541287 36.01251805207039 74.54298090032877 H 0.0 **** 0.06
13484 H 139.794095978284 37.69986974793511 74.01899032259081 H 0.0 **** 0.06
13485 H 140.65564186392908 36.54797213478895 72.97125179109825 H 0.0 **** 0.06
13486 C 22.573589869360177 65.74221251180177 45.139794232489976 C 0.0 **** -0.24
13487 H 23.626819843232568 65.8935691879314 45.377474648749626 H 0.0 **** 0.06
13488 H 22.357244430643505 66.17139243599905 44.16102283234693 H 0.0 **** 0.06
13489 H 21.9582111456086 66.23097827658302 45.89422461411698 H 0.0 **** 0.06
13490 H 22.354148153750742 64.67561967309132 45.125823716348805 H 0.0 **** 0.06
13491 C 44.52350268956812 39.07295047483504 31.0431143501567 C 0.0 **** -0.24
13492 H 44.924306070566416 39.59622592753698 31.91083643460408 H 0.0 **** 0.06
13493 H 44.87699907905284 38.041685810557055 31.045035319209305 H 0.0 **** 0.06
13494 H 44.85735760712009 39.5704217139417 30.13259502474591 H 0.0 **** 0.06
13495 H 43.43338176130419 39.08381481636752 31.08410911072569 H 0.0 **** 0.06
13496 C 79.45471581158273 40.88749125974502 28.589413125992223 C 0.0 **** -0.24
13497 H 78.8795792328807 41.7939796174669 28.78052300007846 H 0.0 **** 0.06
13498 H 79.26963278041666 40.16541598190129 29.38437333629804 H 0.0 **** 0.06
13499 H 80.51665447219881 41.13181519533539 28.559508507889973 H 0.0 **** 0.06
13500 H 79.15309457464326 40.46163812861185 27.632426748631133 H 0.0 **** 0.06
13501 C 39.35911614942869 66.5683926493827 72.06017432513237 C 0.0 **** -0.24
13502 H 40.110380285204386 66.53022934552683 71.27170750295097 H 0.0 **** 0.06
13503 H 38.745369702151535 67.46059902515458 71.9342804036859 H 0.0 **** 0.06
13504 H 39.8525967098809 66.6010441019485 73.03099921966488 H 0.0 **** 0.06
13505 H 38.72704436139138 65.68200863284937 72.00284348252502 H 0.0 **** 0.06
13506 C 101.31015835861888 166.94282007654243 155.8410538257392 C 0.0 **** -0.24
13507 H 101.82854229899439 166.11345981704548 155.3591753618987 H 0.0 **** 0.06
13508 H 101.98849593918584 167.4425452061107 156.53218701895008 H 0.0 **** 0.06
13509 H 100.44733109205725 166.56263998642092 156.3884398021426 H 0.0 **** 0.06
13510 H 100.97573544183552 167.65103921012442 155.0829389545371 H 0.0 **** 0.06
13511 C 128.09725811237928 132.2378791465607 99.49786641857216 C 0.0 **** -0.24
13512 H 127.3189108295702 132.99026239825463 99.62227749059127 H 0.0 **** 0.06
13513 H 127.91340866743766 131.67326908173658 98.58297512259585 H 0.0 **** 0.06
13514 H 128.08548896481975 131.55965741821237 100.35149747419263 H 0.0 **** 0.06
13515 H 129.06911477108375 132.72710992406365 99.43497716634397 H 0.0 **** 0.06
13516 C 104.20470341850071 81.30491854038817 140.7429393039059 C 0.0 **** -0.24
13517 H 103.3715524605212 80.7864131809414 141.2170171965414 H 0.0 **** 0.06
13518 H 104.78575391992246 81.82850839537437 141.50207378615437 H 0.0 **** 0.06
13519 H 103.8207888575227 82.02308130813677 140.01896208655296 H 0.0 **** 0.06
13520 H 104.84129810505752 80.57968524071705 140.23455254661678 H 0.0 **** 0.06
13521 C 117.39040743490676 74.60018384369157 86.15503557867008 C 0.0 **** -0.24
13522 H 117.4620720421706 75.61681488670393 86.54219924500705 H 0.0 **** 0.06
13523 H 117.93382735558913 73.92270126420824 86.81394250602847 H 0.0 **** 0.06
13524 H 117.82292273811069 74.56046095554484 85.15506417743275 H 0.0 **** 0.06
13525 H 116.34311892889897 74.30209536021167 86.11096503834871 H 0.0 **** 0.06
13526 C 139.73763518204976 22.28322653302108 23.429088372041946 C 0.0 **** -0.24
13527 H 139.13981941898322 21.778913394430283 22.669765145838824 H 0.0 **** 0.06
13528 H 139.24946437187083 23.214377188530356 23.716229266838752 H 0.0 **** 0.06
13529 H 140.7278729393298 22.499506637416594 23.02822145667696 H 0.0 **** 0.06
13530 H 139.83304336511577 21.63802834946162 24.30288285007188 H 0.0 **** 0.06
13531 C 51.25462484993602 96.62118297808712 125.207919726574 C 0.0 **** -0.24
13532 H 50.84267726883394 95.9181675399879 124.48393583951221 H 0.0 **** 0.06
13533 H 52.145717859043486 96.19130986833903 125.66554025483995 H 0.0 **** 0.06
13534 H 50.511560393084096 96.82523757877067 125.97836381759083 H 0.0 **** 0.06
13535 H 51.518139240857124 97.54984351749971 124.70087142812977 H 0.0 **** 0.06
13536 C 55.02277676951506 100.58007348897226 77.81235430843088 C 0.0 **** -0.24
13537 H 55.02816399595075 100.65209107323855 76.72496357033987 H 0.0 **** 0.06
13538 H 55.80177626110999 101.22267273346418 78.22290052291663 H 0.0 **** 0.06
13539 H 55.2093317409978 99.54768167555923 78.10842790842634 H 0.0 **** 0.06
13540 H 54.05190051603711 100.89691581543394 78.19277041553534 H 0.0 **** 0.06
13541 C 6.803005903912407 2.9720305933135904 84.24441735404048 C 0.0 **** -0.24
13542 H 7.328259501917614 3.663517026430533 84.90413122243241 H 0.0 **** 0.06
13543 H 6.285080994777957 3.5347026847543503 83.46731947830061 H 0.0 **** 0.06
13544 H 6.079121908634079 2.398081934624237 84.82228504022983 H 0.0 **** 0.06
13545 H 7.52180101127189 2.2926759237888987 83.78443576931386 H 0.0 **** 0.06
13546 C 13.888009088561823 104.90487814716684 105.29126642451882 C 0.0 **** -0.24
13547 H 13.584186099860837 105.95135300020857 105.29875915148432 H 0.0 **** 0.06
13548 H 13.634654467038231 104.44599194726524 106.24723979842088 H 0.0 **** 0.06
13549 H 14.964988188935813 104.84123628134029 105.13172347982169 H 0.0 **** 0.06
13550 H 13.370072173533003 104.38106816755447 104.48805372946674 H 0.0 **** 0.06
13551 C 28.75694830237873 104.63387962469727 32.097952160971374 C 0.0 **** -0.24
13552 H 28.689761082489753 104.61299339987107 31.010257430775994 H 0.0 **** 0.06
13553 H 28.558003546676503 103.63734283402243 32.49238035192448 H 0.0 **** 0.06
13554 H 28.02191361589827 105.33548382397038 32.49420685490537 H 0.0 **** 0.06
13555 H 29.75724387562191 104.9494782091407 32.39387187163692 H 0.0 **** 0.06
13556 C 61.58274201647545 160.5734813441864 169.09688915556075 C 0.0 **** -0.24
13557 H 61.75014661804805 161.47749303539197 169.68143488902248 H 0.0 **** 0.06
13558 H 61.688811928059295 160.8030148511281 168.0353441476552 H 0.0 **** 0.06
13559 H 60.57737125253196 160.19764741637712 169.2882649270685 H 0.0 **** 0.06
13560 H 62.314469551412685 159.8165240636244 169.3792872373413 H 0.0 **** 0.06
13561 C 128.7982417957865 150.8301678116416 72.42980128897909 C 0.0 **** -0.24
13562 H 128.8743620308462 151.73463955557992 71.8253314458733 H 0.0 **** 0.06
13563 H 127.82675154372063 150.80462398813313 72.92441873295456 H 0.0 **** 0.06
13564 H 129.588314177165 150.82731300189758 73.18022493364515 H 0.0 **** 0.06
13565 H 128.9019287145424 149.95510748536395 71.78861362586753 H 0.0 **** 0.06
13566 C 165.91381867680585 136.38169139143645 120.60619420287588 C 0.0 **** -0.24
13567 H 165.35666898688515 135.76120513104726 119.90375258295467 H 0.0 **** 0.06
13568 H 165.5350132305515 136.21600197544757 121.61592421794748 H 0.0 **** 0.06
13569 H 165.79102277457898 137.4312374044863 120.33911272864782 H 0.0 **** 0.06
13570 H 166.96991497209925 136.11744159179432 120.56556407116983 H 0.0 **** 0.06
13571 C 161.59971919194075 162.23085907014726 117.90784375381244 C 0.0 **** -0.24
13572 H 161.7357783144331 163.0980454636266 118.55319158895563 H 0.0 **** 0.06
13573 H 161.75903375405494 161.31968659285673 118.4847343680461 H 0.0 **** 0.06
13574 H 162.3162986804664 162.2721601382705 117.08734984659225 H 0.0 **** 0.06
13575 H 160.58600622424382 162.23272178543465 117.5056227068093 H 0.0 **** 0.06
13576 C 146.49896447417999 106.31868421574922 167.79376207729317 C 0.0 **** -0.24
13577 H 145.59739084483118 105.9134260893062 167.3356289145693 H 0.0 **** 0.06
13578 H 146.72699660938417 105.7599743539069 168.70185174224855 H 0.0 **** 0.06
13579 H 146.33946306466964 107.3676764397755 168.04321507469055 H 0.0 **** 0.06
13580 H 147.33117008780093 106.23329608264214 167.09582451784695 H 0.0 **** 0.06
13581 C 125.12668305850224 64.91552628608287 95.04249644692402 C 0.0 **** -0.24
13582 H 125.12632584840964 65.75835582247748 95.73387003419094 H 0.0 **** 0.06
13583 H 124.24615848708314 64.29806599609816 95.2213999627536 H 0.0 **** 0.06
13584 H 126.02585912489857 64.3191371969001 95.19766940137788 H 0.0 **** 0.06
13585 H 125.10903418743408 65.28641551338416 94.01779899055396 H 0.0 **** 0.06
13586 C 56.562125907932796 104.52739563415469 50.88449546994218 C 0.0 **** -0.24
13587 H 56.45095592811788 104.87598279532409 49.858000269447416 H 0.0 **** 0.06
13588 H 56.63184512855497 103.43942140181815 50.89283210420723 H 0.0 **** 0.06
13589 H 55.69889420121683 104.8410093550055 51.470513052562524 H 0.0 **** 0.06
13590 H 57.467909625280356 104.95229969228166 51.31681430804713 H 0.0 **** 0.06
13591 C 36.69775673075327 75.44208097960146 101.40963031190819 C 0.0 **** -0.24
13592 H 37.247149340360096 75.2262952819342 102.32509272650151 H 0.0 **** 0.06
13593 H 37.19512539906711 74.96374973809462 100.56562211998613 H 0.0 **** 0.06
13594 H 36.66781664577192 76.52010508512696 101.2506309090133 H 0.0 **** 0.06
13595 H 35.68039356922549 75.0594795646678 101.49721208649817 H 0.0 **** 0.06
13596 C 51.71112954550907 42.76974061541239 139.15809608079596 C 0.0 **** -0.24
13597 H 51.19668372366682 42.031048301516904 139.77286217545984 H 0.0 **** 0.06
13598 H 51.58621614964238 42.516289951656404 138.10492106439534 H 0.0 **** 0.06
13599 H 52.77204552871268 42.77298450332614 139.407304680934 H 0.0 **** 0.06
13600 H 51.289399936982875 43.75642271446782 139.3475313859263 H 0.0 **** 0.06
13601 C 20.21653821383481 137.6590922324287 146.85579615103984 C 0.0 **** -0.24
13602 H 20.540014592521665 136.62320469867404 146.75096652140581 H 0.0 **** 0.06
13603 H 20.85872841421471 138.30259463513917 146.2540988836622 H 0.0 **** 0.06
13604 H 20.283128500962306 137.95612727796117 147.902909864339 H 0.0 **** 0.06
13605 H 19.1851410864601 137.75316789347386 146.51683316697938 H 0.0 **** 0.06
13606 C 58.6558138897835 143.5595569736719 157.42331039435493 C 0.0 **** -0.24
13607 H 57.71757932063467 143.00857144018167 157.48496271046784 H 0.0 **** 0.06
13608 H 59.49079891978576 142.87058383283158 157.55325736254315 H 0.0 **** 0.06
13609 H 58.68387312384992 144.31711365317588 158.20606880015134 H 0.0 **** 0.06
13610 H 58.7302637113079 144.04148946527164 156.44784306166292 H 0.0 **** 0.06
13611 C 145.92306832867837 17.705387442913022 137.58252826743677 C 0.0 **** -0.24
13612 H 146.43913267465365 17.077262494357882 136.8570120369742 H 0.0 **** 0.06
13613 H 146.16831451174266 18.75159939266971 137.3977633584676 H 0.0 **** 0.06
13614 H 146.23843074216023 17.430922058220546 138.58960001773414 H 0.0 **** 0.06
13615 H 144.84689412610243 17.561574763811514 137.48738533291942 H 0.0 **** 0.06
13616 C 146.20118153309699 132.57034597253767 101.11319959440226 C 0.0 **** -0.24
13617 H 147.267477576819 132.6137841762703 101.33356528133783 H 0.0 **** 0.06
13618 H 145.74995581409152 133.54460193339906 101.30288058071204 H 0.0 **** 0.06
13619 H 145.72855866902825 131.82083955256996 101.74858448608444 H 0.0 **** 0.06
13620 H 146.05829284749746 132.30094993131334 100.06593896426756 H 0.0 **** 0.06
13621 C 125.03112825253021 38.499669381997876 165.18223661716132 C 0.0 **** -0.24
13622 H 124.59923362267733 38.640774104424366 164.1916031518815 H 0.0 **** 0.06
13623 H 124.65187798101965 37.57437346541147 165.61626759675926 H 0.0 **** 0.06
13624 H 124.75837323490299 39.339844376676126 165.820697938354 H 0.0 **** 0.06
13625 H 126.1167374614069 38.44470455809744 165.10017746573578 H 0.0 **** 0.06
13626 C 165.57323127507112 72.78827043807766 90.71299432869228 C 0.0 **** -0.24
13627 H 165.74489746512342 72.55621798453234 91.7641258930571 H 0.0 **** 0.06
13628 H 164.500938440608 72.84728875477657 90.52439920224626 H 0.0 **** 0.06
13629 H 166.0094470335961 72.00551167107898 90.09236826441024 H 0.0 **** 0.06
13630 H 166.03737421364764 73.74444464222961 90.47241919667395 H 0.0 **** 0.06
13631 C 97.64276843445754 20.172157204976486 141.34802279685474 C 0.0 **** -0.24
13632 H 98.127473498158 20.197042516663544 140.37164124786966 H 0.0 **** 0.06
13633 H 98.3339456995709 20.541589060556873 142.10618195077492 H 0.0 **** 0.06
13634 H 97.35522724838768 19.147820888025706 141.58503410792247 H 0.0 **** 0.06
13635 H 96.75439033572462 20.803269996893818 141.32704236345276 H 0.0 **** 0.06
13636 C 125.38109603856594 89.05662890924748 147.8999105640582 C 0.0 **** -0.24
13637 H 124.48878206318781 89.6004912569636 147.58947746526047 H 0.0 **** 0.06
13638 H 125.91845175687291 89.63884117195143 148.64887178728407 H 0.0 **** 0.06
13639 H 126.02548555373764 88.89175558735263 147.0360204420334 H 0.0 **** 0.06
13640 H 125.09090860896376 88.09608168706622 148.32529329350916 H 0.0 **** 0.06
13641 C 143.21225846088282 153.0705614157313 167.28317697744092 C 0.0 **** -0.24
13642 H 142.67097440086656 152.60968293602764 168.10901458790656 H 0.0 **** 0.06
13643 H 143.5726768353853 152.29495390696025 166.6075899981144 H 0.0 **** 0.06
13644 H 144.05928797377427 153.63395007711713 167.67404830254105 H 0.0 **** 0.06
13645 H 142.54647754963491 153.74281546466665 166.74312381166635 H 0.0 **** 0.06
13646 C 96.72283971206173 58.19888739067764 21.754531792883967 C 0.0 **** -0.24
13647 H 97.38059621170498 58.58310931124515 22.53441646306314 H 0.0 **** 0.06
13648 H 97.1626555713155 57.30208407620019 21.318041227875483 H 0.0 **** 0.06
13649 H 96.59713957465573 58.95631050360909 20.979934525098173 H 0.0 **** 0.06
13650 H 95.75213018924649 57.955327031136164 22.185655372407837 H 0.0 **** 0.06
13651 C 164.22956759167425 131.0045385449453 113.28331854778284 C 0.0 **** -0.24
13652 H 164.6950508721498 131.98476353612318 113.38519328198424 H 0.0 **** 0.06
13653 H 163.54335110701723 130.84104740973143 114.11482368644829 H 0.0 **** 0.06
13654 H 164.99971489363952 130.23400596447328 113.2902342547942 H 0.0 **** 0.06
13655 H 163.67842085950926 130.96004105796348 112.34333159454798 H 0.0 **** 0.06
13656 C 146.77749623761173 166.41337094290347 86.23471223850026 C 0.0 **** -0.24
13657 H 145.6874676164369 166.4247761039373 86.27922934757089 H 0.0 **** 0.06
13658 H 147.0969396009204 166.12338548040898 85.2338538333123 H 0.0 **** 0.06
13659 H 147.16194912413332 165.6963041228086 86.96087983090617 H 0.0 **** 0.06
13660 H 147.16018384064625 167.40640591404855 86.46670551799305 H 0.0 **** 0.06
13661 C 95.81941034411255 43.15395565868363 164.53108747238275 C 0.0 **** -0.24
13662 H 96.78899179430039 42.66790993173146 164.63985580125365 H 0.0 **** 0.06
13663 H 95.63486098403973 43.79394863271409 165.394743510613 H 0.0 **** 0.06
13664 H 95.03820610468318 42.39693550630355 164.46691120910367 H 0.0 **** 0.06
13665 H 95.8159051341861 43.75762933208122 163.62443155712714 H 0.0 **** 0.06
13666 C 145.24621786287952 105.51658796404072 25.254372430422478 C 0.0 **** -0.24
13667 H 144.3539492074504 104.9048511705868 25.38429126322947 H 0.0 **** 0.06
13668 H 146.131112288674 104.92164456208155 25.485853440141256 H 0.0 **** 0.06
13669 H 145.1988049841522 106.37504112534899 25.924700995930237 H 0.0 **** 0.06
13670 H 145.30173437055603 105.86366606475775 24.223028710020458 H 0.0 **** 0.06
13671 C 66.42992353291848 167.93048668223858 58.62240603495924 C 0.0 **** -0.24
13672 H 66.26333521654337 168.2388692885377 57.59008888507513 H 0.0 **** 0.06
13673 H 66.42475778125478 168.80868267395567 59.26819880804277 H 0.0 **** 0.06
13674 H 67.39351505014784 167.42794559858146 58.70003337344474 H 0.0 **** 0.06
13675 H 65.63749651552354 167.24838236378736 58.92991911861236 H 0.0 **** 0.06
13676 C 151.3674178187851 111.27829892453789 30.8697732489709 C 0.0 **** -0.24
13677 H 151.96824433835027 110.61059976094333 31.488220933558466 H 0.0 **** 0.06
13678 H 150.32055623882826 111.20124131621287 31.163907826947437 H 0.0 **** 0.06
13679 H 151.4726844938277 110.99703043851173 29.82299624770667 H 0.0 **** 0.06
13680 H 151.70892899694715 112.30442562584179 31.0068728490224 H 0.0 **** 0.06
13681 C 30.36337268193347 161.81225177533076 114.58485184436475 C 0.0 **** -0.24
13682 H 29.962720090269343 161.00103148783333 113.97743574672097 H 0.0 **** 0.06
13683 H 29.543599924233718 162.42007003556836 114.9658882375864 H 0.0 **** 0.06
13684 H 31.02253713353278 162.430775948163 113.97496965558634 H 0.0 **** 0.06
13685 H 30.92710248520217 161.39586093769884 115.4205704609092 H 0.0 **** 0.06
13686 C 148.9837130134269 20.722641483071413 7.590271313343692 C 0.0 **** -0.24
13687 H 148.78952133411246 21.753699428804282 7.293600942655644 H 0.0 **** 0.06
13688 H 149.53060836562815 20.213279695771973 6.796370029474929 H 0.0 **** 0.06
13689 H 148.03693221770618 20.211852010245195 7.766107679191379 H 0.0 **** 0.06
13690 H 149.57657613481 20.713310658301907 8.504799298349212 H 0.0 **** 0.06
13691 C 153.4775810395911 132.62846720388373 106.12243254454887 C 0.0 **** -0.24
13692 H 153.36486844190983 131.62012764146618 105.72288603937756 H 0.0 **** 0.06
13693 H 152.8937449877796 132.7230864205479 107.0384221047832 H 0.0 **** 0.06
13694 H 153.1231480071713 133.35135194850324 105.38797693473026 H 0.0 **** 0.06
13695 H 154.52808353902137 132.81719079183523 106.33988839100942 H 0.0 **** 0.06
13696 C 148.66149081238694 125.13626158891796 12.711935913650336 C 0.0 **** -0.24
13697 H 148.9564244404758 125.11646716295144 11.662501524487709 H 0.0 **** 0.06
13698 H 149.52606809830078 125.38867648533832 13.32714975147627 H 0.0 **** 0.06
13699 H 148.2833460194794 124.15595592709064 13.000742926106625 H 0.0 **** 0.06
13700 H 147.88250123549255 125.88446410829886 12.85509452090298 H 0.0 **** 0.06
13701 C 34.50388370788015 81.1663979918291 79.28788629656947 C 0.0 **** -0.24
13702 H 34.950921982340844 80.88971949509913 80.2435426257517 H 0.0 **** 0.06
13703 H 34.30610774097396 82.23829537526039 79.27745299795046 H 0.0 **** 0.06
13704 H 33.569313531424086 80.62207922038397 79.15300546169775 H 0.0 **** 0.06
13705 H 35.1909911898469 80.91558443484415 78.480502856641 H 0.0 **** 0.06
13706 C 49.6982167984341 155.8281235297488 170.66967115052478 C 0.0 **** -0.24
13707 H 49.151255890708995 155.08225676138636 171.24604230064566 H 0.0 **** 0.06
13708 H 49.27952434646997 156.81564891941076 170.86437715796706 H 0.0 **** 0.06
13709 H 49.611696732644845 155.59963701450206 169.6064315569525 H 0.0 **** 0.06
13710 H 50.74801940203463 155.81411593428598 170.95991487853456 H 0.0 **** 0.06
13711 C 68.6120692032214 81.74779589933576 164.2619788320539 C 0.0 **** -0.24
13712 H 68.58673389192714 81.69831293114703 163.1739219810959 H 0.0 **** 0.06
13713 H 68.38687701275668 80.76458941504984 164.67546121283863 H 0.0 **** 0.06
13714 H 67.87174742791326 82.46716119339419 164.61044317263742 H 0.0 **** 0.06
13715 H 69.6041093639899 82.06059012166475 164.58754030909694 H 0.0 **** 0.06
13716 C 123.00031555251363 107.08182612322994 29.84037895110714 C 0.0 **** -0.24
13717 H 123.2406832886657 106.78507459917796 28.81958952015981 H 0.0 **** 0.06
13718 H 122.73488667249688 108.13862448394278 29.859031191689382 H 0.0 **** 0.06
13719 H 123.86557996392625 106.91216087901171 30.48169744185958 H 0.0 **** 0.06
13720 H 122.15874801056421 106.48882614274976 30.20172967593504 H 0.0 **** 0.06
13721 C 49.68711744086468 87.20263832353207 139.40865517702935 C 0.0 **** -0.24
13722 H 49.654244344323786 87.96549518233259 138.63096439655868 H 0.0 **** 0.06
13723 H 50.177913985950084 86.30929564733846 139.02001671811774 H 0.0 **** 0.06
13724 H 48.67162931914257 86.95407399388841 139.7180381935094 H 0.0 **** 0.06
13725 H 50.24603341655467 87.57990724918768 140.26563843464203 H 0.0 **** 0.06
13726 C 76.24176740650748 156.66729735857578 74.41689059051447 C 0.0 **** -0.24
13727 H 77.23449601054024 156.23364778932162 74.29181387138689 H 0.0 **** 0.06
13728 H 76.31775561640902 157.58600372607674 74.99908609487295 H 0.0 **** 0.06
13729 H 75.59977139883209 155.95844240157686 74.93800181443797 H 0.0 **** 0.06
13730 H 75.81724507222316 156.89094616406172 73.43759072988892 H 0.0 **** 0.06
13731 C 48.10407185506661 9.845251596713695 132.12921870082317 C 0.0 **** -0.24
13732 H 49.056290577957455 9.333316881268388 132.27258037899028 H 0.0 **** 0.06
13733 H 47.286566871964666 9.14471021772357 132.29894364803786 H 0.0 **** 0.06
13734 H 48.04844523785765 10.228809935653516 131.11010737983526 H 0.0 **** 0.06
13735 H 48.02668318091786 10.671750294354922 132.83472989529923 H 0.0 **** 0.06
13736 C 85.43275255150033 11.83766878984445 99.32377456478685 C 0.0 **** -0.24
13737 H 86.08364900135803 10.963808468389495 99.31332871648726 H 0.0 **** 0.06
13738 H 85.44060952519101 12.284735642835102 100.31825116310995 H 0.0 **** 0.06
13739 H 84.41586441046817 11.536309046371336 99.06831408731625 H 0.0 **** 0.06
13740 H 85.78924318287615 12.565339705274404 98.59495041284413 H 0.0 **** 0.06
13741 C 29.18744098118924 117.25601805720848 22.86052080176512 C 0.0 **** -0.24
13742 H 29.080042570581043 117.58717408450045 21.82765902533805 H 0.0 **** 0.06
13743 H 28.581656774635007 117.89041548470672 23.508552143408536 H 0.0 **** 0.06
13744 H 30.23356395221353 117.32670158166817 23.157340168131867 H 0.0 **** 0.06
13745 H 28.853353745741515 116.22274414526223 22.94715156950292 H 0.0 **** 0.06
13746 C 82.65784362656584 169.85641300060388 166.41911690671404 C 0.0 **** -0.24
13747 H 82.76605371964713 169.86596540158024 167.5037613261652 H 0.0 **** 0.06
13748 H 81.64384280163267 169.5493416660051 166.15828980865888 H 0.0 **** 0.06
13749 H 83.37299140680328 169.15554860918218 165.98892400648992 H 0.0 **** 0.06
13750 H 82.84593463907109 170.8558489253279 166.02666717362126 H 0.0 **** 0.06
13751 C 152.43754541113668 68.26402446478546 19.472717119501 C 0.0 **** -0.24
13752 H 153.19587156230028 67.62717435976286 19.018423660431324 H 0.0 **** 0.06
13753 H 152.20988891135173 67.89951414636673 20.475259875669963 H 0.0 **** 0.06
13754 H 151.53364613316188 68.24388996340616 18.864012036392467 H 0.0 **** 0.06
13755 H 152.81120161765725 69.2860987568428 19.53386744932078 H 0.0 **** 0.06
13756 C 18.06915760167732 159.94479034485335 150.53065559872803 C 0.0 **** -0.24
13757 H 18.319755719159247 160.65165632297465 149.73962130107117 H 0.0 **** 0.06
13758 H 18.611075120234545 159.0120234719496 150.36935589375335 H 0.0 **** 0.06
13759 H 16.996700816635155 159.74832404358335 150.51706717367142 H 0.0 **** 0.06
13760 H 18.34965129247408 160.3649343176623 151.4957107643063 H 0.0 **** 0.06
13761 C 64.9421246283913 12.922973942589948 129.79090866681 C 0.0 **** -0.24
13762 H 65.36086606048605 12.328220390748584 130.60294439332202 H 0.0 **** 0.06
13763 H 64.91113119957407 13.971872867705144 130.08837409352734 H 0.0 **** 0.06
13764 H 63.93156313287352 12.577360445110884 129.57146395911954 H 0.0 **** 0.06
13765 H 65.56408418270297 12.81497357328783 128.90284932680711 H 0.0 **** 0.06
13766 C 118.44216295488249 89.67662792705302 131.451868391609 C 0.0 **** -0.24
13767 H 119.19405285551497 90.43423714139143 131.67269420510118 H 0.0 **** 0.06
13768 H 117.45955157463484 90.04333971088279 131.74760055098017 H 0.0 **** 0.06
13769 H 118.67285785286583 88.76507564058932 132.0030911007574 H 0.0 **** 0.06
13770 H 118.44477332750242 89.46458903160988 130.38274918662728 H 0.0 **** 0.06
13771 C 162.3710966250889 108.92640402638878 92.31772804740484 C 0.0 **** -0.24
13772 H 161.7019554526487 109.77877832493789 92.43430988737731 H 0.0 **** 0.06
13773 H 162.61342067006154 108.51904964337376 93.29889603905775 H 0.0 **** 0.06
13774 H 163.28562271981318 109.24891621608157 91.82030862067654 H 0.0 **** 0.06
13775 H 161.8806454805638 108.16014810926245 91.71647455687804 H 0.0 **** 0.06
13776 C 137.60586138820605 103.49978749428533 60.99631439862168 C 0.0 **** -0.24
13777 H 137.758862445441 102.5343221598066 60.51461165360672 H 0.0 **** 0.06
13778 H 138.56429667506436 104.00849322851366 61.103880590170036 H 0.0 **** 0.06
13779 H 137.16210646695768 103.34917446243463 61.979783479751376 H 0.0 **** 0.06
13780 H 136.9382913927579 104.10883942549515 60.386572454014015 H 0.0 **** 0.06
13781 C 5.880652742945777 133.23048192964802 12.83216375947552 C 0.0 **** -0.24
13782 H 6.138236524777454 134.08533700201957 13.456628776209755 H 0.0 **** 0.06
13783 H 6.793057141565036 132.7362657008236 12.498011510384174 H 0.0 **** 0.06
13784 H 5.313446704582525 133.57168626684148 11.965077173345776 H 0.0 **** 0.06
13785 H 5.27682941403787 132.5285463752865 13.407984974695978 H 0.0 **** 0.06
13786 C 47.33214341837399 121.16214007497544 154.42458354272546 C 0.0 **** -0.24
13787 H 47.66300739297202 121.18910666906154 153.38600565022224 H 0.0 **** 0.06
13788 H 46.96147884843339 120.16408669087826 154.66090417016258 H 0.0 **** 0.06
13789 H 46.5350424006416 121.89096208576765 154.57042805343522 H 0.0 **** 0.06
13790 H 48.16992265925819 121.4041734468147 155.07872112947393 H 0.0 **** 0.06
13791 C 11.940581457568157 12.329673712005587 93.07922018886288 C 0.0 **** -0.24
13792 H 12.64757930141809 11.79269110035122 92.44715460884913 H 0.0 **** 0.06
13793 H 11.999897963074972 11.946630756288727 94.09813521984762 H 0.0 **** 0.06
13794 H 10.930243744926912 12.188655522524869 92.69550967809386 H 0.0 **** 0.06
13795 H 12.185252200100592 13.392422410677597 93.07478733476933 H 0.0 **** 0.06
13796 C 32.08295958752268 117.64269659677151 145.58493127496826 C 0.0 **** -0.24
13797 H 32.6279356895468 117.32031414353821 144.69736786668255 H 0.0 **** 0.06
13798 H 32.719045990349485 118.29438966784917 146.1845690288248 H 0.0 **** 0.06
13799 H 31.798819182786005 116.77050417682511 146.17316063526383 H 0.0 **** 0.06
13800 H 31.18724376983647 118.1868194261755 145.28321163351055 H 0.0 **** 0.06
13801 C 61.145322923347635 14.899660553785544 63.20418479481458 C 0.0 **** -0.24
13802 H 60.305858750799075 14.754502754982902 62.524336798855146 H 0.0 **** 0.06
13803 H 61.82633107658256 15.641028647443683 62.786463088385304 H 0.0 **** 0.06
13804 H 61.67298196026519 13.954922103247384 63.33615597863205 H 0.0 **** 0.06
13805 H 60.775483054740164 15.248156225436105 64.16901299298563 H 0.0 **** 0.06
13806 C 7.66743893592411 71.64598047013726 25.375357981739455 C 0.0 **** -0.24
13807 H 7.368801195071853 71.7889400071511 24.336727988371933 H 0.0 **** 0.06
13808 H 6.936797410763603 72.12064047550888 26.03169408214069 H 0.0 **** 0.06
13809 H 8.646607766395107 72.09499123339839 25.535906624274162 H 0.0 **** 0.06
13810 H 7.714721594489305 70.57984959857762 25.596234615828024 H 0.0 **** 0.06
13811 C 155.33479252956354 66.99998770107979 147.37533517063048 C 0.0 **** -0.24
13812 H 155.04812240144005 67.92906490521769 147.86810486709078 H 0.0 **** 0.06
13813 H 156.40674833307793 67.00817627889855 147.1799717509312 H 0.0 **** 0.06
13814 H 154.7937740179244 66.90689998003192 146.4332800492548 H 0.0 **** 0.06
13815 H 155.08894513583212 66.15639942509196 148.02037785627036 H 0.0 **** 0.06
13816 C 156.3714474733453 132.80652217121622 130.58660182307966 C 0.0 **** -0.24
13817 H 156.84226468083833 131.99111645133064 130.03492716146297 H 0.0 **** 0.06
13818 H 156.92343459513546 133.72943959531423 130.4093087746706 H 0.0 **** 0.06
13819 H 156.3803223378613 132.5751615209178 131.6522901943638 H 0.0 **** 0.06
13820 H 155.34311912099943 132.9265226720915 130.24816007465404 H 0.0 **** 0.06
13821 C 39.418765784554466 155.42485987004886 72.26183674388318 C 0.0 **** -0.24
13822 H 38.75984333633983 155.90886738350264 71.54058426770615 H 0.0 **** 0.06
13823 H 38.83494531016248 155.08867490418996 73.11842503103057 H 0.0 **** 0.06
13824 H 40.1772918873545 156.13397129956942 72.5929474647092 H 0.0 **** 0.06
13825 H 39.902611872914406 154.56775452105396 71.79225437580396 H 0.0 **** 0.06
13826 C 33.588398444354766 121.29871608589494 49.71106932521219 C 0.0 **** -0.24
13827 H 34.284875685860754 120.83823910082552 49.01086038209412 H 0.0 **** 0.06
13828 H 32.56930067406671 121.00445202158897 49.45537488274513 H 0.0 **** 0.06
13829 H 33.67877496512915 122.38373682413462 49.65428655727712 H 0.0 **** 0.06
13830 H 33.818724767763456 120.96729110675744 50.72365090517843 H 0.0 **** 0.06
13831 C 91.12099684832862 112.94418789207378 40.172835774540374 C 0.0 **** -0.24
13832 H 91.87084725183962 113.2325766986049 39.43676143739316 H 0.0 **** 0.06
13833 H 90.64522092190768 113.83821447262233 40.576688401158094 H 0.0 **** 0.06
13834 H 91.60001232142373 112.3916868642649 40.98116428200734 H 0.0 **** 0.06
13835 H 90.36867688429605 112.31475010268653 39.69820548912219 H 0.0 **** 0.06
13836 C 126.07847812236332 29.826512848102823 135.97822111087748 C 0.0 **** -0.24
13837 H 126.60044801257033 30.39079682440132 136.75072237272275 H 0.0 **** 0.06
13838 H 126.20421001663698 30.324978621219202 135.0163138445436 H 0.0 **** 0.06
13839 H 125.01780285576461 29.770080237858338 136.22342007285877 H 0.0 **** 0.06
13840 H 126.492363472769 28.81913602387675 135.92264174100754 H 0.0 **** 0.06
13841 C 113.20126268479788 72.60710701291205 62.091703418220476 C 0.0 **** -0.24
13842 H 112.46510261485253 72.86364337247666 61.33030955509746 H 0.0 **** 0.06
13843 H 113.25026181176952 71.52309126169102 62.1993749051628 H 0.0 **** 0.06
13844 H 112.9114798655848 73.05415441283033 63.04281368220403 H 0.0 **** 0.06
13845 H 114.17865952247024 72.98710060075167 61.79509177300723 H 0.0 **** 0.06
13846 C 20.50010680315799 129.4520549573097 12.665384063856095 C 0.0 **** -0.24
13847 H 19.648309719555755 129.9335708484685 13.14517917267608 H 0.0 **** 0.06
13848 H 21.341602758341764 130.14422843190533 12.640897014605343 H 0.0 **** 0.06
13849 H 20.23115989496887 129.17071165697348 11.646884818303079 H 0.0 **** 0.06
13850 H 20.777468409495526 128.56119815439743 13.228102337991572 H 0.0 **** 0.06
13851 C 48.55947428373952 89.96399155938252 64.00655871995416 C 0.0 **** -0.24
13852 H 49.16740595635409 90.37193418081502 63.19874927665289 H 0.0 **** 0.06
13853 H 48.833960017691965 90.44465898032952 64.94511216752989 H 0.0 **** 0.06
13854 H 48.73043021042275 88.89080547069508 64.08342119815121 H 0.0 **** 0.06
13855 H 47.50545827305103 90.15072145084 63.796965237691566 H 0.0 **** 0.06
13856 C 51.18509245492561 168.79303998376548 70.61747982761852 C 0.0 **** -0.24
13857 H 50.76550866772038 168.6867993610352 69.61763957521401 H 0.0 **** 0.06
13858 H 52.16030514450665 169.27545792876725 70.55273172003072 H 0.0 **** 0.06
13859 H 51.29566159244632 167.8078443974555 71.07112211204287 H 0.0 **** 0.06
13860 H 50.51759472111644 169.40155136457201 71.22865811211479 H 0.0 **** 0.06
13861 C 164.61450697690213 124.90734202713031 128.79380060337044 C 0.0 **** -0.24
13862 H 164.60524598967982 124.62478762368335 129.84671581401938 H 0.0 **** 0.06
13863 H 163.65477709174073 125.35317640057633 128.52896575550523 H 0.0 **** 0.06
13864 H 164.78482521650392 124.02144521853253 128.18159006659585 H 0.0 **** 0.06
13865 H 165.41232225080122 125.62884186109025 128.6180622773474 H 0.0 **** 0.06
13866 C 151.44410270141475 118.6894907306351 117.01049147845606 C 0.0 **** -0.24
13867 H 151.8732172778615 119.14828273821553 116.11953594182091 H 0.0 **** 0.06
13868 H 150.4750311095109 118.25583939231603 116.76517346016695 H 0.0 **** 0.06
13869 H 151.3188294972033 119.44673646014968 117.78502149068194 H 0.0 **** 0.06
13870 H 152.111567485639 117.90702152783314 117.37223711859704 H 0.0 **** 0.06
13871 C 78.24629599576537 13.322521806900625 138.40775844681963 C 0.0 **** -0.24
13872 H 77.64989996521052 12.614663879535499 138.98322270205404 H 0.0 **** 0.06
13873 H 78.36575703820523 14.243778758559301 138.97877236926485 H 0.0 **** 0.06
13874 H 77.74212720959201 13.54097965127977 137.46606624295262 H 0.0 **** 0.06
13875 H 79.22609797068927 12.890620105687276 138.2047900120349 H 0.0 **** 0.06
13876 C 161.73441784261502 19.279875946365166 47.920945598792485 C 0.0 **** -0.24
13877 H 162.61460207557917 18.659915266561427 48.091437996550795 H 0.0 **** 0.06
13878 H 161.88021614551425 19.878521725863635 47.02112489201829 H 0.0 **** 0.06
13879 H 161.58501827427438 19.93951216594104 48.77641859342698 H 0.0 **** 0.06
13880 H 160.85908921707536 18.642530800690736 47.79637376121451 H 0.0 **** 0.06
13881 C 51.14522981352464 117.71174622803971 74.4800892485365 C 0.0 **** -0.24
13882 H 51.01071754660144 118.0286665387485 75.51381993135271 H 0.0 **** 0.06
13883 H 50.17896208692379 117.4357554906083 74.05672769421057 H 0.0 **** 0.06
13884 H 51.81488585553224 116.85213495405242 74.4482861690044 H 0.0 **** 0.06
13885 H 51.57554374990799 118.52995093397959 73.90257980136607 H 0.0 **** 0.06
13886 C 157.58617223326203 164.89903001930037 168.6478142423819 C 0.0 **** -0.24
13887 H 157.44745678151105 165.52707359441922 169.52778837514745 H 0.0 **** 0.06
13888 H 157.42534569970613 165.4930786432437 167.7479029926533 H 0.0 **** 0.06
13889 H 156.87157123153233 164.0761587750108 168.6724214839951 H 0.0 **** 0.06
13890 H 158.5999168994435 164.4989780322356 168.64353238794368 H 0.0 **** 0.06
13891 C 36.94868961924293 2.159773479255776 136.51383004200756 C 0.0 **** -0.24
13892 H 37.87935204438371 1.724069288141294 136.87716389665707 H 0.0 **** 0.06
13893 H 36.10479790063212 1.5940595740518333 136.90665148339608 H 0.0 **** 0.06
13894 H 36.93390809082595 2.1270725471043477 135.4245884112327 H 0.0 **** 0.06
13895 H 36.878863907530615 3.1959608146803973 136.84671199753697 H 0.0 **** 0.06
13896 C 5.995047955973263 136.04522915625543 128.371785060852 C 0.0 **** -0.24
13897 H 6.611076344695704 136.9283771048313 128.20282972056253 H 0.0 **** 0.06
13898 H 6.056056995908705 135.755805402415 129.42046658932537 H 0.0 **** 0.06
13899 H 6.355315594902407 135.22691358835934 127.74645066151032 H 0.0 **** 0.06
13900 H 4.960010293195182 136.26961460112616 128.114782370986 H 0.0 **** 0.06
13901 C 28.275824439549496 146.29202982258963 55.27394074991301 C 0.0 **** -0.24
13902 H 28.19301516643344 146.53224777841353 54.214170429952475 H 0.0 **** 0.06
13903 H 27.502019010797454 145.57359947073786 55.54458659741485 H 0.0 **** 0.06
13904 H 28.149772338039355 147.20101592691387 55.86243061813502 H 0.0 **** 0.06
13905 H 29.25759209419367 145.86278967971273 55.473658937003265 H 0.0 **** 0.06
13906 C 94.94749644728398 72.57031723904845 19.568697680497223 C 0.0 **** -0.24
13907 H 95.15315506122744 73.58500117984242 19.91106626485049 H 0.0 **** 0.06
13908 H 94.38033148755972 72.0374523427963 20.331512257700524 H 0.0 **** 0.06
13909 H 95.88956331158985 72.05155711579825 19.386576321774896 H 0.0 **** 0.06
13910 H 94.37014947481569 72.60870334120439 18.64437674303008 H 0.0 **** 0.06
13911 C 11.660438692772914 22.035423134093946 64.57180812748062 C 0.0 **** -0.24
13912 H 12.245089928574771 22.497243972309093 63.77592393819958 H 0.0 **** 0.06
13913 H 11.482298903801393 20.98788228781285 64.33165288975987 H 0.0 **** 0.06
13914 H 10.706155482548354 22.55435579162949 64.66850699016331 H 0.0 **** 0.06
13915 H 12.207920368352404 22.105163332366118 65.5115923027345 H 0.0 **** 0.06
13916 C 88.67803598260929 20.84743860615589 64.42793695154396 C 0.0 **** -0.24
13917 H 88.8961809772731 21.821850955604333 63.99225417062348 H 0.0 **** 0.06
13918 H 88.32651382398342 20.97753588847044 65.45207809866295 H 0.0 **** 0.06
13919 H 89.58148122073483 20.23858421019395 64.4283590142638 H 0.0 **** 0.06
13920 H 87.90601665049303 20.35103034231767 63.8398475225232 H 0.0 **** 0.06
13921 C 55.072204967491814 134.229845086504 91.85169988904329 C 0.0 **** -0.24
13922 H 54.56920717456444 133.35222456472806 92.2580711876611 H 0.0 **** 0.06
13923 H 55.723330605223396 133.92707541230163 91.03077044385365 H 0.0 **** 0.06
13924 H 55.66746709033316 134.70194311411458 92.63304784720358 H 0.0 **** 0.06
13925 H 54.32775109721183 134.9361940735238 91.48460627309055 H 0.0 **** 0.06
13926 C 46.813537943930214 46.96411486276965 91.64138553465355 C 0.0 **** -0.24
13927 H 46.90154485805631 46.221767603708244 90.84766358392574 H 0.0 **** 0.06
13928 H 46.01482173783765 46.672490809660744 92.3238018555601 H 0.0 **** 0.06
13929 H 46.58357758300872 47.9355559508239 91.20553052839989 H 0.0 **** 0.06
13930 H 47.755149748784305 47.02381840569302 92.18819620716556 H 0.0 **** 0.06
13931 C 145.2870908970741 138.10429607228073 52.20962111237897 C 0.0 **** -0.24
13932 H 144.54612732467658 137.80009757985357 51.47014531522021 H 0.0 **** 0.06
13933 H 144.78327694931187 138.39028717879842 53.133253504184964 H 0.0 **** 0.06
13934 H 145.8550352496564 138.95222755089185 51.827146802781115 H 0.0 **** 0.06
13935 H 145.9646080564344 137.27384753129053 52.40785304941883 H 0.0 **** 0.06
13936 C 115.58604772820402 105.28644840670148 103.34119026775795 C 0.0 **** -0.24
13937 H 114.56694834424681 105.38806045469286 103.71467872829243 H 0.0 **** 0.06
13938 H 115.57191386521288 105.25602072853735 102.25209359999764 H 0.0 **** 0.06
13939 H 116.02282420885899 104.36501818274101 103.7260107811397 H 0.0 **** 0.06
13940 H 116.18033955307257 106.1365405530264 103.67379169421491 H 0.0 **** 0.06
13941 C 23.510294197555552 149.932896357984 43.92271107594303 C 0.0 **** -0.24
13942 H 23.22566491533631 148.98331284494026 44.375944470138904 H 0.0 **** 0.06
13943 H 24.057221046049968 149.7441812239901 42.99766574125948 H 0.0 **** 0.06
13944 H 24.144145101187164 150.4886075464376 44.612630817101035 H 0.0 **** 0.06
13945 H 22.61475776083479 150.51340341819434 43.70346418547075 H 0.0 **** 0.06
13946 C 92.95886335340018 43.595275824972774 139.44455844647712 C 0.0 **** -0.24
13947 H 92.94817616608844 42.54038502416681 139.17255967145343 H 0.0 **** 0.06
13948 H 91.96471258440798 44.01752332765837 139.30037293787018 H 0.0 **** 0.06
13949 H 93.67437840298726 44.12472130208609 138.81529467853983 H 0.0 **** 0.06
13950 H 93.2490162565453 43.69792724529448 140.4901186593222 H 0.0 **** 0.06
13951 C 72.87833979144685 69.61457774541199 54.902451273929785 C 0.0 **** -0.24
13952 H 72.56737303721674 68.88905315357627 54.15033097231435 H 0.0 **** 0.06
13953 H 72.53408886727588 70.60849484147205 54.613436840293446 H 0.0 **** 0.06
13954 H 73.96519302582767 69.61374628192014 54.979888453067645 H 0.0 **** 0.06
13955 H 72.4451872374103 69.34632310451339 55.86661543426766 H 0.0 **** 0.06
13956 C 146.1116606149855 97.81293291190184 30.382353066978396 C 0.0 **** -0.24
13957 H 145.6589955285841 97.62662873135775 29.40858140497312 H 0.0 **** 0.06
13958 H 145.51175931712493 98.54033683087229 30.928870353701086 H 0.0 **** 0.06
13959 H 147.1203415829816 98.20236863041012 30.244622496715067 H 0.0 **** 0.06
13960 H 146.15616528541125 96.88062977662759 30.94499449189081 H 0.0 **** 0.06
13961 C 84.42303886325182 13.919199724742214 68.50900231957843 C 0.0 **** -0.24
13962 H 83.59090655223055 14.31819865178295 69.08855891060952 H 0.0 **** 0.06
13963 H 85.16489610199875 13.494599549379643 69.18584109761571 H 0.0 **** 0.06
13964 H 84.87849650592713 14.720532785007094 67.92731955166371 H 0.0 **** 0.06
13965 H 84.05737676195477 13.143025854316562 67.83665082028801 H 0.0 **** 0.06
13966 C 136.85964259292592 151.7671450552165 82.14888685256359 C 0.0 **** -0.24
13967 H 137.38342795968074 152.01514412015044 81.22579014340165 H 0.0 **** 0.06
13968 H 136.9739749265246 150.70361493307246 82.3568555105849 H 0.0 **** 0.06
13969 H 135.80207481267522 152.00550792552934 82.04107830299043 H 0.0 **** 0.06
13970 H 137.2809394122267 152.3458369618289 82.97130576669613 H 0.0 **** 0.06
13971 C 57.689222000827115 84.00488633895816 153.5607428157523 C 0.0 **** -0.24
13972 H 58.17990440162174 84.97547775724934 153.49249145835188 H 0.0 **** 0.06
13973 H 56.610250596595876 84.1466534697106 153.62681845128395 H 0.0 **** 0.06
13974 H 58.04332718230803 83.47985180902424 154.44796682978478 H 0.0 **** 0.06
13975 H 57.924353361613555 83.41646884090812 152.67306645864295 H 0.0 **** 0.06
13976 C 54.329418553669896 96.04762136943407 163.2321921027259 C 0.0 **** -0.24
13977 H 53.429989666547314 95.67827071272552 162.739430540392 H 0.0 **** 0.06
13978 H 54.712410882625036 96.91196446288484 162.68970055730398 H 0.0 **** 0.06
13979 H 55.08488142077289 95.26193848029956 163.2454752439884 H 0.0 **** 0.06
13980 H 54.08885700233577 96.33870691764673 164.25538151245198 H 0.0 **** 0.06
13981 C 120.14224846806366 98.76275762027723 171.37608647939936 C 0.0 **** -0.24
13982 H 120.00655215106084 99.2077649825141 172.3627420389985 H 0.0 **** 0.06
13983 H 119.53160554893438 99.29848250904456 170.6499176086238 H 0.0 **** 0.06
13984 H 119.8392926061089 97.71640632635996 171.40552936682525 H 0.0 **** 0.06
13985 H 121.19143017786251 98.8294317789971 171.08974497572098 H 0.0 **** 0.06
13986 C 134.82303085584758 128.48625616441558 101.40135209053929 C 0.0 **** -0.24
13987 H 135.17274105583977 129.45846958343876 101.05464469556475 H 0.0 **** 0.06
13988 H 135.45171292753503 127.70203111277351 100.97858486060551 H 0.0 **** 0.06
13989 H 133.7915756657389 128.33629699326244 101.08252514530554 H 0.0 **** 0.06
13990 H 134.87691992825268 128.44711648365342 102.48936323070487 H 0.0 **** 0.06
13991 C 12.161462125388788 14.631762845890961 141.75770844098741 C 0.0 **** -0.24
13992 H 12.302448485626833 13.55249123197467 141.695709835441 H 0.0 **** 0.06
13993 H 11.360849289289526 14.852295871237231 142.4646840371072 H 0.0 **** 0.06
13994 H 11.896734112223463 15.021156721290488 140.77502962606383 H 0.0 **** 0.06
13995 H 13.085209056359517 15.099558813424217 142.097697727603 H 0.0 **** 0.06
13996 C 16.14486107117392 30.3596256760124 130.54804613675958 C 0.0 **** -0.24
13997 H 15.982976416112365 29.993041948648397 131.56172651799562 H 0.0 **** 0.06
13998 H 15.544308699515568 31.255408485053152 130.38599914430543 H 0.0 **** 0.06
13999 H 15.85223562940493 29.591134145188647 129.83342926813256 H 0.0 **** 0.06
14000 H 17.199274686654235 30.59919138843992 130.4126121464618 H 0.0 **** 0.06
14001 C 95.84916462953277 37.68169056466846 141.07253305824997 C 0.0 **** -0.24
14002 H 95.54120278913268 36.889191752441434 141.75525433933973 H 0.0 **** 0.06
14003 H 96.61065566658294 38.29831750007213 141.5520555938426 H 0.0 **** 0.06
14004 H 94.98700838223576 38.29886431633207 140.82098120761145 H 0.0 **** 0.06
14005 H 96.25773249032557 37.240221001000236 140.16428415270664 H 0.0 **** 0.06
14006 C 68.82971222646957 4.846289277670593 72.74529840317612 C 0.0 **** -0.24
14007 H 68.94686187617259 4.152538097848492 71.91180185814372 H 0.0 **** 0.06
14008 H 69.20142817865752 4.381854983640778 73.65886462017784 H 0.0 **** 0.06
14009 H 67.77543705730854 5.093841395908299 72.86568103571597 H 0.0 **** 0.06
14010 H 69.39585373495035 5.755033877668069 72.54346877086465 H 0.0 **** 0.06
14011 C 158.66011270139416 66.62366974707514 10.948633476774631 C 0.0 **** -0.24
14012 H 158.4423860669666 65.99466522074256 10.085396193578646 H 0.0 **** 0.06
14013 H 157.75497627570002 67.15077019102655 11.250455213400102 H 0.0 **** 0.06
14014 H 159.43108020728158 67.34676495559663 10.684755521257415 H 0.0 **** 0.06
14015 H 159.01059836367511 66.00139075692493 11.771313736452072 H 0.0 **** 0.06
14016 C 146.65146830535784 69.56127632154266 79.85175078820123 C 0.0 **** -0.24
14017 H 146.11486495449333 69.59731524969101 78.90414739059912 H 0.0 **** 0.06
14018 H 146.52124136710472 70.50635096387504 80.37963909952208 H 0.0 **** 0.06
14019 H 147.71175326487617 69.39287588410036 79.66288235254808 H 0.0 **** 0.06
14020 H 146.25732189663591 68.74780340100574 80.46130604925486 H 0.0 **** 0.06
14021 C 45.014601029846744 164.5977717978036 105.2944886652503 C 0.0 **** -0.24
14022 H 44.2460908782478 165.34134028848348 105.50825784499517 H 0.0 **** 0.06
14023 H 45.50729428200401 164.30885880938874 106.22282794990366 H 0.0 **** 0.06
14024 H 45.74833465621688 165.02144602516924 104.60865027070184 H 0.0 **** 0.06
14025 H 44.554840870696154 163.72150849477686 104.8376425205883 H 0.0 **** 0.06
14026 C 95.81716787429278 79.41330205733198 170.84956100737497 C 0.0 **** -0.24
14027 H 95.4332076699273 78.77625583370349 170.05295203925584 H 0.0 **** 0.06
14028 H 96.23806181703898 80.32112349464239 170.41652205783774 H 0.0 **** 0.06
14029 H 96.5926706127488 78.87956094914773 171.39903086083027 H 0.0 **** 0.06
14030 H 95.00582776919313 79.67641374072491 171.52840610555646 H 0.0 **** 0.06
14031 C 128.17447843991255 169.77876444659114 104.19947987574619 C 0.0 **** -0.24
14032 H 128.95847678815286 169.03471573414487 104.34646061502013 H 0.0 **** 0.06
14033 H 128.41271430853766 170.67345261879586 104.77424932163814 H 0.0 **** 0.06
14034 H 127.22098534110614 169.37207001318097 104.5353707999783 H 0.0 **** 0.06
14035 H 128.108955149251 170.03244836525027 103.14168342165868 H 0.0 **** 0.06
14036 C 152.94014203670667 58.420147358476086 127.15031687290613 C 0.0 **** -0.24
14037 H 152.3619200241639 57.91054569173883 127.92014905633889 H 0.0 **** 0.06
14038 H 152.31820231716966 59.17673804527969 126.66950114134531 H 0.0 **** 0.06
14039 H 153.2732009006281 57.6964809693652 126.40652528360033 H 0.0 **** 0.06
14040 H 153.80795630201482 58.89907845113545 127.6057360689976 H 0.0 **** 0.06
14041 C 99.51435835655008 149.89748044548008 32.541909128320356 C 0.0 **** -0.24
14042 H 99.28094612295575 150.9103333025911 32.86917047022493 H 0.0 **** 0.06
14043 H 100.54529788221996 149.8576804464065 32.18848321841034 H 0.0 **** 0.06
14044 H 98.8414035028857 149.6128617196047 31.73322802706315 H 0.0 **** 0.06
14045 H 99.38974704707204 149.20811817722978 33.3778211503886 H 0.0 **** 0.06
14046 C 131.16538564682088 149.88405070646587 27.413534282700397 C 0.0 **** -0.24
14047 H 132.20997172704074 149.60739131612837 27.555049925952147 H 0.0 **** 0.06
14048 H 130.5419244473419 149.313253204067 28.101566639078783 H 0.0 **** 0.06
14049 H 130.8682094927558 149.6667216953092 26.387194844615976 H 0.0 **** 0.06
14050 H 131.04260819301317 150.94951031405498 27.609908229762652 H 0.0 **** 0.06
14051 C 54.72607126467702 151.13820210995246 97.86197090012772 C 0.0 **** -0.24
14052 H 54.975643750433875 152.1426991949327 97.51970437347521 H 0.0 **** 0.06
14053 H 54.22679533838897 150.59506518742768 97.05936263474393 H 0.0 **** 0.06
14054 H 54.06401766061015 151.20239540808618 98.72537313846007 H 0.0 **** 0.06
14055 H 55.639985710023836 150.61283448760477 98.14229835394545 H 0.0 **** 0.06
14056 C 36.33079964870586 148.5731832309339 6.081491127895504 C 0.0 **** -0.24
14057 H 36.13721281423585 149.17678589455807 5.195435760782715 H 0.0 **** 0.06
14058 H 37.15608707692655 147.88996048410436 5.882427048359176 H 0.0 **** 0.06
14059 H 35.43772969532225 148.00086095073698 6.333190276670734 H 0.0 **** 0.06
14060 H 36.59134495783127 149.22565557292955 6.915111654097302 H 0.0 **** 0.06
14061 C 160.91321496329638 4.44536796569497 49.8731683975512 C 0.0 **** -0.24
14062 H 161.96417209110305 4.264965169894026 50.099049187171374 H 0.0 **** 0.06
14063 H 160.60524646436065 3.8056645430545473 49.04610544975094 H 0.0 **** 0.06
14064 H 160.77520676075798 5.490531574002063 49.59465452443001 H 0.0 **** 0.06
14065 H 160.30913701122537 4.220618344732287 50.75181997953659 H 0.0 **** 0.06
14066 C 148.07286421302362 91.85433354641475 129.71473934271037 C 0.0 **** -0.24
14067 H 148.28066909695073 91.33534027522364 130.65156449057483 H 0.0 **** 0.06
14068 H 148.99799154372232 91.96827133109389 129.15065534332044 H 0.0 **** 0.06
14069 H 147.6529978537321 92.8367166013499 129.92961126469282 H 0.0 **** 0.06
14070 H 147.35868615962272 91.27447851615746 129.1301882041568 H 0.0 **** 0.06
14071 C 85.5932981661951 151.88208436432564 167.63189112041445 C 0.0 **** -0.24
14072 H 84.78704344554079 152.5603138873122 167.35188891666098 H 0.0 **** 0.06
14073 H 85.56363335511998 150.9987951483619 166.99274842404446 H 0.0 **** 0.06
14074 H 85.47196173548656 151.5830016208152 168.6728700635113 H 0.0 **** 0.06
14075 H 86.55140414679451 152.38812731021284 167.5087664571489 H 0.0 **** 0.06
14076 C 58.68875202701287 86.89448827462273 41.328584968315056 C 0.0 **** -0.24
14077 H 57.7533951183282 87.25610653223703 40.902255453722205 H 0.0 **** 0.06
14078 H 58.69081945758964 85.80388993019459 41.32555204396192 H 0.0 **** 0.06
14079 H 58.785248647377685 87.25441409053502 42.35269432864072 H 0.0 **** 0.06
14080 H 59.52511483880352 87.26136001370762 40.733610549666935 H 0.0 **** 0.06
14081 C 121.8446110069174 9.442315316426374 114.13096568968433 C 0.0 **** -0.24
14082 H 121.22026545712757 10.247127250064352 113.74448213590804 H 0.0 **** 0.06
14083 H 122.02368114838131 9.601429361687451 115.1950116620213 H 0.0 **** 0.06
14084 H 122.79610847542708 9.432508832001133 113.60053044475308 H 0.0 **** 0.06
14085 H 121.33772989752151 8.488315274150011 113.98619468941445 H 0.0 **** 0.06
14086 C 57.09702045663714 94.98396172425808 85.54532075829715 C 0.0 **** -0.24
14087 H 57.56188882628189 94.86549850910745 86.52467722217224 H 0.0 **** 0.06
14088 H 57.66690345389087 94.42429473480178 84.80307050503772 H 0.0 **** 0.06
14089 H 57.08481626939049 96.0393844061116 85.27567438174606 H 0.0 **** 0.06
14090 H 56.07573562858579 94.60545468585184 85.58101237988672 H 0.0 **** 0.06
14091 C 90.71319725706132 36.1709439306222 73.50280905325661 C 0.0 **** -0.24
14092 H 90.60278695683797 35.16878544363405 73.9161504338744 H 0.0 **** 0.06
14093 H 90.0083731871581 36.84385788518314 73.98983881471926 H 0.0 **** 0.06
14094 H 90.51163070314959 36.14584250139683 72.4314290759039 H 0.0 **** 0.06
14095 H 91.73059543333588 36.524318343395976 73.6729815641869 H 0.0 **** 0.06
14096 C 167.37526866729576 60.37473361362541 87.3536916516299 C 0.0 **** -0.24
14097 H 167.36728514758897 60.87131534274462 86.38307635561587 H 0.0 **** 0.06
14098 H 168.40474165455257 60.24104012754681 87.68508505645795 H 0.0 **** 0.06
14099 H 166.89164630990777 59.401283961762985 87.26686192304177 H 0.0 **** 0.06
14100 H 166.83554612476775 60.98557297756025 88.0774022538736 H 0.0 **** 0.06
14101 C 28.389325012497352 46.90795594170197 106.15898272913824 C 0.0 **** -0.24
14102 H 27.63349616683567 46.12362919553311 106.19893888816898 H 0.0 **** 0.06
14103 H 28.50155567620402 47.355878842488806 107.14664033921002 H 0.0 **** 0.06
14104 H 28.08221358808879 47.67184051742785 105.44468439386429 H 0.0 **** 0.06
14105 H 29.340992036857642 46.4785059593807 105.84456931306033 H 0.0 **** 0.06
14106 C 142.64823561390477 130.03678826013396 151.42908939484377 C 0.0 **** -0.24
14107 H 142.72168083456756 129.6804299112426 152.4562036488171 H 0.0 **** 0.06
14108 H 143.56237400594193 129.7832757445798 150.89039036396414 H 0.0 **** 0.06
14109 H 142.51431833843597 131.11873995714117 151.4281479545524 H 0.0 **** 0.06
14110 H 141.7955760002243 129.56514050078238 150.9402743294156 H 0.0 **** 0.06
14111 C 55.40164436004787 47.26467876514049 56.67182504313794 C 0.0 **** -0.24
14112 H 55.615427194579624 48.17355327002308 57.23494424915799 H 0.0 **** 0.06
14113 H 56.024951250370506 47.23736025235438 55.77821808498537 H 0.0 **** 0.06
14114 H 54.35084285024483 47.25600562222904 56.382453058299674 H 0.0 **** 0.06
14115 H 55.6148044505307 46.394874071893085 57.29121481355705 H 0.0 **** 0.06
14116 C 113.90398418224916 167.6979925259847 119.55964999058793 C 0.0 **** -0.24
14117 H 113.19515599561649 168.37472197022925 119.08327826118526 H 0.0 **** 0.06
14118 H 113.63980076559523 167.57683456681892 120.61035787876506 H 0.0 **** 0.06
14119 H 114.90890539005375 168.11180510439658 119.4823022511535 H 0.0 **** 0.06
14120 H 113.87073610653059 166.7282727360321 119.06235199338707 H 0.0 **** 0.06
14121 C 153.34454806787568 4.258924472183537 83.78817475057866 C 0.0 **** -0.24
14122 H 152.5179111216924 3.599811876830586 84.05250620472407 H 0.0 **** 0.06
14123 H 153.26763817252805 4.534045071470189 82.73535199102025 H 0.0 **** 0.06
14124 H 154.28972537074844 3.7437100983316896 83.96028869322987 H 0.0 **** 0.06
14125 H 153.30347403039082 5.157752152509829 84.40241971414139 H 0.0 **** 0.06
14126 C 36.43245507673282 23.382003332112426 84.80657860838905 C 0.0 **** -0.24
14127 H 35.5847463025201 22.74423222525995 85.05826700969507 H 0.0 **** 0.06
14128 H 36.85780568839482 23.060631535781717 83.85500819322246 H 0.0 **** 0.06
14129 H 37.18890281873934 23.305077868487096 85.58739130244975 H 0.0 **** 0.06
14130 H 36.09779688779577 24.415137485939518 84.72538845020443 H 0.0 **** 0.06
14131 C 166.33462511390033 80.51890949836195 119.63658452147286 C 0.0 **** -0.24
14132 H 166.17393109496714 80.4318545305785 120.71098018388008 H 0.0 **** 0.06
14133 H 165.4019722874986 80.81010833725662 119.15332358906409 H 0.0 **** 0.06
14134 H 166.6649052584208 79.55920829150432 119.24088417365621 H 0.0 **** 0.06
14135 H 167.0957563371884 81.27373949212767 119.44354287406694 H 0.0 **** 0.06
14136 C 101.29713316178658 110.63754937873915 157.6627303633629 C 0.0 **** -0.24
14137 H 102.0043466780889 109.966287672108 158.15018800842614 H 0.0 **** 0.06
14138 H 100.27960052430137 110.35177943669055 157.93279352095502 H 0.0 **** 0.06
14139 H 101.41920292053203 110.571523076564 156.58164078150537 H 0.0 **** 0.06
14140 H 101.48511637176011 111.66146653660863 157.9873904637991 H 0.0 **** 0.06
14141 C 22.838615576868733 62.53770962200977 165.56317595722683 C 0.0 **** -0.24
14142 H 22.065783396360757 61.773130716344966 165.4834470056012 H 0.0 **** 0.06
14143 H 22.395494985268044 63.520334588005895 165.40015597945353 H 0.0 **** 0.06
14144 H 23.606686466430403 62.35640439242856 164.81148273507932 H 0.0 **** 0.06
14145 H 23.28599548644746 62.49998566817435 166.55628335189138 H 0.0 **** 0.06
14146 C 108.75454612600069 75.9787780751382 148.53855500487106 C 0.0 **** -0.24
14147 H 109.61942818136836 75.94857552173025 149.2006071154873 H 0.0 **** 0.06
14148 H 108.64359527281403 76.98355717999529 148.1308835155428 H 0.0 **** 0.06
14149 H 107.85808090379388 75.71231429943836 149.09938508325328 H 0.0 **** 0.06
14150 H 108.8968085526387 75.26869112813105 147.7231740213098 H 0.0 **** 0.06
14151 C 157.4770910421647 90.59565697303623 167.8180405796535 C 0.0 **** -0.24
14152 H 158.06599335344814 90.80558027049928 168.71179810041772 H 0.0 **** 0.06
14153 H 156.92415658357936 89.66630547420003 167.95890751639305 H 0.0 **** 0.06
14154 H 158.1416047091411 90.4974675667974 166.96020225916737 H 0.0 **** 0.06
14155 H 156.77676813016768 91.41289460187045 167.64483645643367 H 0.0 **** 0.06
14156 C 128.64108508195125 114.52283223333131 75.39367186728384 C 0.0 **** -0.24
14157 H 127.65778210674083 114.39441088330892 74.94205435280179 H 0.0 **** 0.06
14158 H 129.23780747528528 115.19715104463188 74.77838839921037 H 0.0 **** 0.06
14159 H 129.13953871630696 113.55523456670204 75.46130283434206 H 0.0 **** 0.06
14160 H 128.52921202947198 114.9445324386827 76.39294188278132 H 0.0 **** 0.06
14161 C 161.74874006805345 102.45707072559838 11.261650611019832 C 0.0 **** -0.24
14162 H 161.8283520516548 102.81419511805694 10.23484133540498 H 0.0 **** 0.06
14163 H 162.71467941470124 102.55649505711267 11.755839986902942 H 0.0 **** 0.06
14164 H 161.44626835770947 101.40996898959912 11.259201376139572 H 0.0 **** 0.06
14165 H 161.005157357235 103.04927803660104 11.794268124572568 H 0.0 **** 0.06
14166 C 142.07068754930052 154.7185473604154 157.4276209652756 C 0.0 **** -0.24
14167 H 143.01703543922085 154.4315865456101 156.96855194786605 H 0.0 **** 0.06
14168 H 141.60722016091418 155.50880204576467 156.83697665695155 H 0.0 **** 0.06
14169 H 142.2522167195984 155.07988800548938 158.4395825599745 H 0.0 **** 0.06
14170 H 141.40801401636327 153.85406625620794 157.463971830029 H 0.0 **** 0.06
14171 C 12.677083875398374 82.2550882175783 153.71309254363177 C 0.0 **** -0.24
14172 H 11.60115613188502 82.40926867807643 153.6246329907682 H 0.0 **** 0.06
14173 H 13.202083673450787 83.11076219110049 153.28828146479736 H 0.0 **** 0.06
14174 H 12.959298742516815 81.35035474366647 153.17549113937372 H 0.0 **** 0.06
14175 H 12.94340384499209 82.15114103131597 154.76491089292276 H 0.0 **** 0.06
14176 C 153.8323743055614 116.1582920184805 141.30337110117568 C 0.0 **** -0.24
14177 H 154.7685145741919 116.61000565647478 141.63245830613366 H 0.0 **** 0.06
14178 H 153.41770994343554 116.73999995244887 140.4796001655084 H 0.0 **** 0.06
14179 H 153.123934778841 116.14657429031664 142.13244549636403 H 0.0 **** 0.06
14180 H 154.01957631732324 115.13774113322651 140.97059721367347 H 0.0 **** 0.06
14181 C 30.951518177423793 47.39950999119037 55.620740625906805 C 0.0 **** -0.24
14182 H 30.595778490413267 46.4880094556807 56.1019290057302 H 0.0 **** 0.06
14183 H 31.873536536918323 47.72737779397059 56.101885159243466 H 0.0 **** 0.06
14184 H 30.19526235860218 48.177772639057665 55.715985221129486 H 0.0 **** 0.06
14185 H 31.140394472177206 47.20309500022984 54.56573254106809 H 0.0 **** 0.06
14186 C 0.2706783220339162 18.94072183537663 171.82158623488948 C 0.0 **** -0.24
14187 H 0.342794460008804 17.854268329001734 171.77845610964107 H 0.0 **** 0.06
14188 H 0.45666112056915154 19.27643608852675 172.84220641293246 H 0.0 **** 0.06
14189 H -0.7275885096337902 19.251162445846568 171.5122576734609 H 0.0 **** 0.06
14190 H 1.0108462171916983 19.38102047813171 171.1534247435236 H 0.0 **** 0.06
14191 C 28.81678458060739 124.8947802235663 107.23090132624114 C 0.0 **** -0.24
14192 H 29.04775050150124 125.26772090837517 106.23286716591261 H 0.0 **** 0.06
14193 H 28.173532718104696 125.60917798218944 107.74486345931535 H 0.0 **** 0.06
14194 H 29.741197303187448 124.76717032185098 107.79375477347136 H 0.0 **** 0.06
14195 H 28.30457298651004 123.93648265608303 107.150725190809 H 0.0 **** 0.06
14196 C 168.33915069872876 53.702636713077226 83.5683495246789 C 0.0 **** -0.24
14197 H 168.88082280460975 53.93622068264712 84.48454547743874 H 0.0 **** 0.06
14198 H 168.19561640628328 52.62361716023781 83.49792264644402 H 0.0 **** 0.06
14199 H 168.91167769554795 54.05028853994615 82.7083185741983 H 0.0 **** 0.06
14200 H 167.36854333245947 54.198238410900956 83.58309664306407 H 0.0 **** 0.06
14201 C 153.95774682089507 90.25149909728019 104.95366604668467 C 0.0 **** -0.24
14202 H 154.68084200060923 90.76681357679915 104.32100535619756 H 0.0 **** 0.06
14203 H 153.92202056102624 90.73326468754188 105.93151305726599 H 0.0 **** 0.06
14204 H 154.25526787611904 89.21007272100934 105.07118402780398 H 0.0 **** 0.06
14205 H 152.97236750415058 90.29761032533254 104.49015818568407 H 0.0 **** 0.06
14206 C 79.15786355148475 73.62272933444058 16.571622819325462 C 0.0 **** -0.24
14207 H 78.63590832791913 73.54506589128626 17.52440467673381 H 0.0 **** 0.06
14208 H 80.04115348290483 72.98360520892237 16.587792473203855 H 0.0 **** 0.06
14209 H 79.4599859283257 74.656439996922 16.404810024836472 H 0.0 **** 0.06
14210 H 78.49412997543897 73.30442675590133 15.767478923732014 H 0.0 **** 0.06
14211 C 57.243291055866095 102.48676269816525 104.94747155988571 C 0.0 **** -0.24
14212 H 57.350193315220906 101.90620169252665 105.86432871273496 H 0.0 **** 0.06
14213 H 57.90394689558585 103.35294125170657 104.98811350482865 H 0.0 **** 0.06
14214 H 56.210691597050456 102.82033718135489 104.84749360819777 H 0.0 **** 0.06
14215 H 57.508612307469164 101.86656143104636 104.09165429608828 H 0.0 **** 0.06
14216 C 117.80007119414552 34.33384718888459 164.57161546322232 C 0.0 **** -0.24
14217 H 116.85928410329424 33.878469874747395 164.26513497715518 H 0.0 **** 0.06
14218 H 118.0902618177098 35.094107723396405 163.84622211127558 H 0.0 **** 0.06
14219 H 118.57447725912462 33.56782973233538 164.6238334568193 H 0.0 **** 0.06
14220 H 117.67883488441066 34.794333700373556 165.552250524303 H 0.0 **** 0.06
14221 C 24.147623661070014 32.91881764355787 95.28128333759119 C 0.0 **** -0.24
14222 H 23.111597774721247 33.25310944102489 95.32757067904106 H 0.0 **** 0.06
14223 H 24.72525052819202 33.61307915496678 94.67036979007943 H 0.0 **** 0.06
14224 H 24.188649031431993 31.923680425625804 94.83875422734951 H 0.0 **** 0.06
14225 H 24.564367383409888 32.88746061403651 96.28783566277482 H 0.0 **** 0.06
14226 C 71.37955710370737 103.47461508198302 112.66730648892283 C 0.0 **** -0.24
14227 H 71.70131202773206 104.40627790128093 112.20243518227309 H 0.0 **** 0.06
14228 H 72.23500556394572 102.9889875039147 113.13727881089756 H 0.0 **** 0.06
14229 H 70.95974803298232 102.81541206183635 111.90732299261077 H 0.0 **** 0.06
14230 H 70.62213754184765 103.68807566492933 113.42123311623146 H 0.0 **** 0.06
14231 C 131.02300702432422 25.468026852797408 48.45060897755083 C 0.0 **** -0.24
14232 H 130.18127190350225 25.087998766593103 47.87152709222424 H 0.0 **** 0.06
14233 H 130.76542101883098 25.462536819533597 49.51108178474155 H 0.0 **** 0.06
14234 H 131.25043645179812 26.48671299231455 48.13667652174554 H 0.0 **** 0.06
14235 H 131.89419383636118 24.833179920094068 48.2853149075619 H 0.0 **** 0.06
14236 C 44.06208813703006 132.25513399306465 95.9996265395778 C 0.0 **** -0.24
14237 H 44.34404655107744 133.29345399623992 96.17831970937007 H 0.0 **** 0.06
14238 H 44.95779194227714 131.6344463828488 95.97660985321949 H 0.0 **** 0.06
14239 H 43.54247589789338 132.17990542772182 95.04427007407995 H 0.0 **** 0.06
14240 H 43.40407816332538 131.91496570124036 96.79927620884726 H 0.0 **** 0.06
14241 C 18.603133848535776 7.938792719370724 91.40878432203452 C 0.0 **** -0.24
14242 H 18.252864890126858 6.915807053579414 91.54685377387953 H 0.0 **** 0.06
14243 H 17.78165874917346 8.559155609856191 91.05027667503681 H 0.0 **** 0.06
14244 H 19.412477411172176 7.949645294458833 90.67875253901732 H 0.0 **** 0.06
14245 H 18.966203537289005 8.329326149230269 92.3591038513897 H 0.0 **** 0.06
14246 C 9.053178773355 31.855284153012008 9.60022816537095 C 0.0 **** -0.24
14247 H 9.923827426854587 32.17333269842209 10.174275416933185 H 0.0 **** 0.06
14248 H 8.2539975529603 32.588294791057024 9.715934700501279 H 0.0 **** 0.06
14249 H 8.712082349590844 30.886453096644573 9.96373025797331 H 0.0 **** 0.06
14250 H 9.32276117561645 31.77402716933841 8.546738324706197 H 0.0 **** 0.06
14251 C 34.95879322568885 48.79034411697805 27.576826080574314 C 0.0 **** -0.24
14252 H 35.3495039219313 49.23285723982424 26.66101690439175 H 0.0 **** 0.06
14253 H 34.433847946639844 49.552577753263606 28.15265202986363 H 0.0 **** 0.06
14254 H 35.78275141920207 48.39048954073782 28.167849259585992 H 0.0 **** 0.06
14255 H 34.2679757470836 47.98494190417112 27.325048986427987 H 0.0 **** 0.06
14256 C 12.287749070272525 141.69127423463027 39.09687366440926 C 0.0 **** -0.24
14257 H 13.262696999970927 142.00851082686063 39.46835811034646 H 0.0 **** 0.06
14258 H 12.413118392026263 141.1792243087833 38.14214562545152 H 0.0 **** 0.06
14259 H 11.649726983170694 142.5635166257607 38.96157340960394 H 0.0 **** 0.06
14260 H 11.829028590520807 141.01287589837455 39.81594903814053 H 0.0 **** 0.06
14261 C 6.571077326215196 144.65085498601093 48.16850002357921 C 0.0 **** -0.24
14262 H 7.509430621798323 144.11032727201132 48.04094575403391 H 0.0 **** 0.06
14263 H 6.571289178163134 145.1553266794927 49.13566417757295 H 0.0 **** 0.06
14264 H 5.7389489810122 143.94823169137777 48.12486396399295 H 0.0 **** 0.06
14265 H 6.466218213479046 145.38835179669707 47.373581053399604 H 0.0 **** 0.06
14266 C 107.13280658068868 78.78861910140057 159.50277714835553 C 0.0 **** -0.24
14267 H 106.05857563259721 78.62097982727886 159.57846149676152 H 0.0 **** 0.06
14268 H 107.33107592239816 79.8600830648922 159.46917002848488 H 0.0 **** 0.06
14269 H 107.51066925891399 78.31947321279011 158.5949863768819 H 0.0 **** 0.06
14270 H 107.6293446403674 78.35452295655205 160.37077639143564 H 0.0 **** 0.06
14271 C 23.06520170812891 37.410658847241876 65.61448098934704 C 0.0 **** -0.24
14272 H 23.846996604339154 38.13834820311004 65.40047845951767 H 0.0 **** 0.06
14273 H 22.998306527019167 36.69613793413379 64.79357715410202 H 0.0 **** 0.06
14274 H 22.111031420587096 37.92495854411686 65.72806383147912 H 0.0 **** 0.06
14275 H 23.30530316411742 36.88232402535613 66.53793961462827 H 0.0 **** 0.06
14276 C 167.7198085245533 104.30485624415184 143.39726241225253 C 0.0 **** -0.24
14277 H 166.98992591812558 104.8278096430584 144.01482398338788 H 0.0 **** 0.06
14278 H 168.6188396868115 104.9142919243821 143.30257175353447 H 0.0 **** 0.06
14279 H 167.29685986268305 104.12472632622132 142.4088486160814 H 0.0 **** 0.06
14280 H 167.97360863059288 103.35259708294558 143.86280529600626 H 0.0 **** 0.06
14281 C 137.33474049261295 99.6888168394901 75.97739401639215 C 0.0 **** -0.24
14282 H 137.8296679923931 100.56497650900047 76.3988121545304 H 0.0 **** 0.06
14283 H 137.8318950224894 99.40235788788266 75.05024901829067 H 0.0 **** 0.06
14284 H 136.2910362511576 99.92500671298609 75.77243802756553 H 0.0 **** 0.06
14285 H 137.38867120378873 98.86472342472399 76.68874112278448 H 0.0 **** 0.06
14286 C 106.09431526773918 127.656235271534 93.74413881246181 C 0.0 **** -0.24
14287 H 106.50209751561331 127.60921795316196 92.73404465138805 H 0.0 **** 0.06
14288 H 106.72315833885054 127.07217097442711 94.41710798839611 H 0.0 **** 0.06
14289 H 105.0824525010855 127.24920275304927 93.746483109266 H 0.0 **** 0.06
14290 H 106.06964839664073 128.69308101291722 94.07830137360384 H 0.0 **** 0.06
14291 C 13.07856305065252 104.1863390838736 98.6923280409784 C 0.0 **** -0.24
14292 H 13.355421646615866 105.23810013211724 98.75536108453502 H 0.0 **** 0.06
14293 H 12.873990000178708 103.80397761606795 99.69236942053897 H 0.0 **** 0.06
14294 H 13.898086783111467 103.62111018094853 98.24771209057803 H 0.0 **** 0.06
14295 H 12.187469945993229 104.08203159146672 98.07265777893645 H 0.0 **** 0.06
14296 C 89.21491632048493 105.65515539636365 144.2939299370866 C 0.0 **** -0.24
14297 H 88.17133697287434 105.62943582467537 144.6096558786798 H 0.0 **** 0.06
14298 H 89.49257270225363 106.67842973203321 144.042311703091 H 0.0 **** 0.06
14299 H 89.34557308372229 105.01730323411425 143.41921990475782 H 0.0 **** 0.06
14300 H 89.84817677174269 105.29454306849021 145.1034601016272 H 0.0 **** 0.06
14301 C 51.039104053927645 142.4677148823902 161.14887786606272 C 0.0 **** -0.24
14302 H 50.98620602671268 141.78291379403723 160.30160252965413 H 0.0 **** 0.06
14303 H 52.02535380149989 142.93238899128684 161.1791538094572 H 0.0 **** 0.06
14304 H 50.869519747903894 141.91438412079867 162.0724126024959 H 0.0 **** 0.06
14305 H 50.276187185154456 143.2383518648819 161.04177670924219 H 0.0 **** 0.06
14306 C 131.74580527037534 7.049172235344862 128.5236802183284 C 0.0 **** -0.24
14307 H 131.0689017726077 6.466887830563586 129.14816615690495 H 0.0 **** 0.06
14308 H 132.23249262902 7.813724544613464 129.1301473627004 H 0.0 **** 0.06
14309 H 131.18266313140202 7.524890548621528 127.72073239660392 H 0.0 **** 0.06
14310 H 132.50104575280648 6.39012104843318 128.09510637358645 H 0.0 **** 0.06
14311 C 63.3463366862305 90.43093547260264 58.533169505372314 C 0.0 **** -0.24
14312 H 62.341496988784684 90.66322399702463 58.88401615451777 H 0.0 **** 0.06
14313 H 64.0220215176011 91.24136257307967 58.80605794470563 H 0.0 **** 0.06
14314 H 63.33517957118141 90.31595889501426 57.44927878574073 H 0.0 **** 0.06
14315 H 63.68664866735449 89.50319642529179 58.99332513652523 H 0.0 **** 0.06
14316 C 136.15377003703477 39.09546252622306 0.9173142248299371 C 0.0 **** -0.24
14317 H 135.26183685012006 39.30824223421919 1.5061114345684814 H 0.0 **** 0.06
14318 H 136.77371991078348 39.991023937864895 0.8602954612542533 H 0.0 **** 0.06
14319 H 135.86235848610744 38.79006595333951 -0.0876506638026342 H 0.0 **** 0.06
14320 H 136.71839860221095 38.292323707248485 1.391164215192589 H 0.0 **** 0.06
14321 C 67.83563957140751 71.96563087898839 129.24266423057404 C 0.0 **** -0.24
14322 H 68.30114737581926 71.9341129910167 130.22737498539675 H 0.0 **** 0.06
14323 H 67.96360183075478 72.95897901098888 128.81269407964743 H 0.0 **** 0.06
14324 H 66.7714046781673 71.74531904440731 129.3378169015916 H 0.0 **** 0.06
14325 H 68.30412602711897 71.2246171511562 128.59551953211863 H 0.0 **** 0.06
14326 C 147.41564657807965 65.05117965243926 68.6219291239787 C 0.0 **** -0.24
14327 H 147.12877791822822 64.35873070954466 67.83132430290846 H 0.0 **** 0.06
14328 H 147.85560147943383 65.9452183154857 68.17987851198171 H 0.0 **** 0.06
14329 H 148.14371220662275 64.57361837402306 69.27786956280002 H 0.0 **** 0.06
14330 H 146.53313667387562 65.32848336859598 69.19981937914685 H 0.0 **** 0.06
14331 C 93.6794279190018 13.62675945942614 61.936889464804224 C 0.0 **** -0.24
14332 H 93.53768570688572 14.5750291505123 62.45519431614616 H 0.0 **** 0.06
14333 H 93.35327337597806 12.808826352717226 62.57932843661354 H 0.0 **** 0.06
14334 H 94.73473887220501 13.500492229314268 61.6940776507042 H 0.0 **** 0.06
14335 H 93.0929841366156 13.624426188147226 61.01793547290711 H 0.0 **** 0.06
14336 C 126.62514945945091 171.50076299459496 29.815385832392252 C 0.0 **** -0.24
14337 H 126.41304043574857 172.53650631222797 30.07912946751992 H 0.0 **** 0.06
14338 H 127.67748006335142 171.4016673378885 29.547051028018984 H 0.0 **** 0.06
14339 H 126.00370427535609 171.2069876231665 28.969085580333 H 0.0 **** 0.06
14340 H 126.40497867970723 170.8569840576744 30.668075545193346 H 0.0 **** 0.06
14341 C 159.369129302504 48.57906423996437 28.997543436497963 C 0.0 **** -0.24
14342 H 159.56751004277442 48.33608305833792 27.953567183283695 H 0.0 **** 0.06
14343 H 158.7507815779372 47.797667063625255 29.44020442550108 H 0.0 **** 0.06
14344 H 158.84563772254828 49.53324546144262 29.05398753117447 H 0.0 **** 0.06
14345 H 160.31105352930683 48.64816922491465 29.540304336602603 H 0.0 **** 0.06
14346 C 135.3989731103837 169.450397364941 141.49986751420178 C 0.0 **** -0.24
14347 H 135.04286989408956 169.02540154141832 142.43827426639191 H 0.0 **** 0.06
14348 H 134.55267030638285 169.62462121272813 140.83628875718065 H 0.0 **** 0.06
14349 H 136.09422924053558 168.75595998164152 141.0285313175919 H 0.0 **** 0.06
14350 H 135.90640991926142 170.39392497881445 141.69782124340435 H 0.0 **** 0.06
14351 C 153.64154049772162 58.60320386230052 158.5613191119798 C 0.0 **** -0.24
14352 H 152.70274742482775 58.398590618316135 158.04714000206317 H 0.0 **** 0.06
14353 H 153.43083537784236 59.01683638078836 159.54821612528985 H 0.0 **** 0.06
14354 H 154.2234076228835 59.32049618951892 157.98269527487773 H 0.0 **** 0.06
14355 H 154.20717934582228 57.67826897027318 158.66759369108703 H 0.0 **** 0.06
14356 C 101.25419603668638 116.14970131596536 91.05704250895643 C 0.0 **** -0.24
14357 H 100.84929787827832 115.53246808591209 90.25523155981124 H 0.0 **** 0.06
14358 H 101.4095147847693 117.16523040489324 90.69045419933245 H 0.0 **** 0.06
14359 H 102.2044290635499 115.73379521134422 91.39061928639252 H 0.0 **** 0.06
14360 H 100.5519220502652 116.16739086763098 91.89032607779265 H 0.0 **** 0.06
14361 C 78.0380969376638 98.33818623249735 17.069899634386672 C 0.0 **** -0.24
14362 H 78.11113767079826 99.21835906372567 17.708578755099893 H 0.0 **** 0.06
14363 H 78.87576312848773 98.32510364495721 16.37233358482871 H 0.0 **** 0.06
14364 H 77.10134840724646 98.37068551113353 16.513486861373707 H 0.0 **** 0.06
14365 H 78.06447884407237 97.4391928770813 17.685926528718 H 0.0 **** 0.06
14366 C 120.58961326264878 134.57361661052028 132.74879287328167 C 0.0 **** -0.24
14367 H 121.2758456838547 134.12549686520924 133.46787768240063 H 0.0 **** 0.06
14368 H 120.27341099079914 135.55323635713478 133.1101023230001 H 0.0 **** 0.06
14369 H 119.71796157052009 133.93089343163666 132.62834202138833 H 0.0 **** 0.06
14370 H 121.09358608284626 134.68640666879816 131.7889783182079 H 0.0 **** 0.06
14371 C 83.58592750286091 67.86294380713173 97.18001938747452 C 0.0 **** -0.24
14372 H 83.68821893632541 68.80867295795377 96.64773184902475 H 0.0 **** 0.06
14373 H 83.171331050047 68.04577533316825 98.17107871114965 H 0.0 **** 0.06
14374 H 84.56489898740206 67.39304664975015 97.27614788524679 H 0.0 **** 0.06
14375 H 82.91988542958809 67.20361023933515 96.6230791756447 H 0.0 **** 0.06
14376 C 11.997424921762246 128.72140494009662 69.759508135077 C 0.0 **** -0.24
14377 H 11.954878279409684 129.75474702453428 69.41467177332771 H 0.0 **** 0.06
14378 H 12.863397820977355 128.5910701883529 70.4086868328663 H 0.0 **** 0.06
14379 H 12.082514734219245 128.05488139953528 68.90085436454922 H 0.0 **** 0.06
14380 H 11.0890578114672 128.4857944122426 70.31335562060093 H 0.0 **** 0.06
14381 C 102.46234309650674 100.70964548107835 68.58400769214305 C 0.0 **** -0.24
14382 H 101.77763874101765 100.15340353277014 67.94309190161056 H 0.0 **** 0.06
14383 H 102.35370818403351 101.77748928701345 68.39105619304235 H 0.0 **** 0.06
14384 H 103.48677367655449 100.40500949171789 68.37282755360656 H 0.0 **** 0.06
14385 H 102.22949330534561 100.50393084891502 69.62847005688457 H 0.0 **** 0.06
14386 C 95.03095861952588 157.02859902838563 12.61236164753015 C 0.0 **** -0.24
14387 H 95.15722994896561 157.491766185231 13.591233925587531 H 0.0 **** 0.06
14388 H 95.23900610585372 155.96052408247382 12.687477446617834 H 0.0 **** 0.06
14389 H 95.7201367091987 157.48436187841634 11.902018809809285 H 0.0 **** 0.06
14390 H 94.00660834490893 157.17607352321053 12.269933583872053 H 0.0 **** 0.06
14391 C 92.81842219388497 33.670800423828865 153.2827659915692 C 0.0 **** -0.24
14392 H 93.42370055050233 33.91382086702333 152.40920238639936 H 0.0 **** 0.06
14393 H 93.47161091803514 33.461728186147226 154.1303794028599 H 0.0 **** 0.06
14394 H 92.20727860697264 32.79415521760842 153.06933949768762 H 0.0 **** 0.06
14395 H 92.1715246007808 34.5148393218675 153.52200860484598 H 0.0 **** 0.06
14396 C 27.321581211411598 102.54565684807562 156.41576049219603 C 0.0 **** -0.24
14397 H 26.340420538831694 102.42960277155214 156.8759141240211 H 0.0 **** 0.06
14398 H 28.058622235967448 102.77596444330504 157.18620917567316 H 0.0 **** 0.06
14399 H 27.287644589556123 103.35793062220202 155.68994936213653 H 0.0 **** 0.06
14400 H 27.598673369835097 101.62021711671761 155.91294107436636 H 0.0 **** 0.06
14401 C 97.35543968191854 165.43780579997065 163.5011949819006 C 0.0 **** -0.24
14402 H 97.18078456109774 166.33797667748536 164.09085265919876 H 0.0 **** 0.06
14403 H 97.91578026654915 164.7165583812199 164.09664421816225 H 0.0 **** 0.06
14404 H 97.92687307572447 165.69381581764054 162.60821067559957 H 0.0 **** 0.06
14405 H 96.39900117798098 165.00342509951537 163.2085911413073 H 0.0 **** 0.06
14406 C 151.20577400513704 14.355832968543865 172.61721124505004 C 0.0 **** -0.24
14407 H 150.28722514142976 14.154578466296257 173.16853310912137 H 0.0 **** 0.06
14408 H 151.3280048611196 15.433235102835063 172.49712168979812 H 0.0 **** 0.06
14409 H 151.15257181993266 13.884124389270958 171.6361792785621 H 0.0 **** 0.06
14410 H 152.0559375157198 13.953193468274932 173.16817189059464 H 0.0 **** 0.06
14411 C 144.79560536067405 89.03123655013117 129.43963978188276 C 0.0 **** -0.24
14412 H 144.48953700513326 89.95190678629201 128.94093073181045 H 0.0 **** 0.06
14413 H 144.62358846090444 89.12398161045658 130.5117511153547 H 0.0 **** 0.06
14414 H 145.8557628080182 88.85491967934847 129.254737743285 H 0.0 **** 0.06
14415 H 144.21500691613699 88.19639281082411 129.04874270152467 H 0.0 **** 0.06
14416 C 119.4947436891957 11.931080029622251 25.25580883795859 C 0.0 **** -0.24
14417 H 118.41281161292636 11.981465885396446 25.380498246319824 H 0.0 **** 0.06
14418 H 119.80087551327301 10.888901529452944 25.164340437129866 H 0.0 **** 0.06
14419 H 119.9819241885086 12.378137202215868 26.12268901817054 H 0.0 **** 0.06
14420 H 119.78266725048488 12.47475994009637 24.356341024840916 H 0.0 **** 0.06
14421 C 112.23909213386304 79.2637561326806 164.7773542967664 C 0.0 **** -0.24
14422 H 112.04128813905345 79.57298809471068 165.80473953069333 H 0.0 **** 0.06
14423 H 113.31250645005952 79.29516217107341 164.5896962022716 H 0.0 **** 0.06
14424 H 111.73003757622297 79.93988850277437 164.0912408725517 H 0.0 **** 0.06
14425 H 111.87215088574618 78.24829914821625 164.62722293849885 H 0.0 **** 0.06
14426 C 51.74281544686495 104.7516494085805 32.227277239188254 C 0.0 **** -0.24
14427 H 51.637411027621056 104.37234741359856 33.24300458958987 H 0.0 **** 0.06
14428 H 51.0339485493041 105.56498696963516 32.06833086122754 H 0.0 **** 0.06
14429 H 51.541419730467084 103.95044040119475 31.516600053881007 H 0.0 **** 0.06
14430 H 52.75839240155729 105.12126958718326 32.08124781661269 H 0.0 **** 0.06
14431 C 51.083554389187015 96.55151139060152 94.15078511451838 C 0.0 **** -0.24
14432 H 51.42927106062977 95.73168848933739 94.77988968381322 H 0.0 **** 0.06
14433 H 51.94144952935788 97.12189259411466 93.79318138578805 H 0.0 **** 0.06
14434 H 50.42957564949005 97.20242593792557 94.73026265432469 H 0.0 **** 0.06
14435 H 50.534191041765084 96.14875191143449 93.29928530452713 H 0.0 **** 0.06
14436 C 163.6145466999268 63.50403347476305 102.91297159413935 C 0.0 **** -0.24
14437 H 163.36227695405205 63.77353504810054 101.8872289016723 H 0.0 **** 0.06
14438 H 164.6984744227743 63.496987160804565 103.03138717751145 H 0.0 **** 0.06
14439 H 163.21761083755317 62.51404882155248 103.13636245480797 H 0.0 **** 0.06
14440 H 163.17763348374982 64.23199756015418 103.5970091183425 H 0.0 **** 0.06
14441 C 44.22333622671357 106.9650675487591 58.02881726644455 C 0.0 **** -0.24
14442 H 45.12500289489677 106.59806276909876 58.51838838068362 H 0.0 **** 0.06
14443 H 44.36462163695853 106.94754670654206 56.94769624381364 H 0.0 **** 0.06
14444 H 44.02445680641307 107.98643334115158 58.353640423690564 H 0.0 **** 0.06
14445 H 43.37992359931775 106.327857200701 58.29619774226589 H 0.0 **** 0.06
14446 C 113.02021760823737 11.768968185147827 143.94134683441447 C 0.0 **** -0.24
14447 H 112.76786688608084 12.661160741577987 144.51532398485298 H 0.0 **** 0.06
14448 H 112.12089227194761 11.377650620468955 143.4657811844553 H 0.0 **** 0.06
14449 H 113.43675112608668 11.013687160017412 144.60834129238162 H 0.0 **** 0.06
14450 H 113.7540978990684 12.023918548604513 143.1769946852913 H 0.0 **** 0.06
14451 C 26.94996457319408 108.69041526709583 73.30225129441305 C 0.0 **** -0.24
14452 H 27.621271328198816 109.43273068813488 72.87207783733845 H 0.0 **** 0.06
14453 H 26.483755575658506 109.0988540570647 74.19916440342189 H 0.0 **** 0.06
14454 H 27.516696344165013 107.79623946046206 73.5622357514439 H 0.0 **** 0.06
14455 H 26.179019134268913 108.433777116297 72.5766293977498 H 0.0 **** 0.06
14456 C 109.38555656506176 27.5137892898762 55.460026304028716 C 0.0 **** -0.24
14457 H 108.9147084559458 27.779175681516236 56.40669800648611 H 0.0 **** 0.06
14458 H 110.25780380013776 26.889394385339834 55.65205998334075 H 0.0 **** 0.06
14459 H 109.69392901152244 28.420552188479732 54.9410237749798 H 0.0 **** 0.06
14460 H 108.67413092949732 26.965633821552956 54.84208509129476 H 0.0 **** 0.06
14461 C 114.2289417062344 129.16298420119853 34.400519836461484 C 0.0 **** -0.24
14462 H 113.77804264704764 128.25612747295912 34.80293266532951 H 0.0 **** 0.06
14463 H 113.55414925778993 130.00369414700103 34.55578113770551 H 0.0 **** 0.06
14464 H 114.4116862229946 129.0345279391566 33.33361514644406 H 0.0 **** 0.06
14465 H 115.17394470835845 129.3554076839788 34.90960013021626 H 0.0 **** 0.06
14466 C 33.75105593813805 60.50688245724416 163.0430779834061 C 0.0 **** -0.24
14467 H 34.0933143973177 61.37763024234202 163.60200518512573 H 0.0 **** 0.06
14468 H 33.64895053407247 59.65810998956562 163.71907499632977 H 0.0 **** 0.06
14469 H 34.475422612545856 60.26610433577433 162.2644959236854 H 0.0 **** 0.06
14470 H 32.78609252591917 60.7256730230731 162.585393050857 H 0.0 **** 0.06
14471 C 134.46784381545874 132.94691366842454 166.09571134740804 C 0.0 **** -0.24
14472 H 134.7679637302242 132.86836452724663 167.14096742787106 H 0.0 **** 0.06
14473 H 133.4238804545229 132.64855145474257 165.99529870127844 H 0.0 **** 0.06
14474 H 135.09381766343645 132.29345611092137 165.48776385220702 H 0.0 **** 0.06
14475 H 134.58468882428397 133.97732643088582 165.76080247482133 H 0.0 **** 0.06
14476 C 109.58660016273512 163.88172122981115 126.44478111980308 C 0.0 **** -0.24
14477 H 109.91954278410157 162.88959629755135 126.14125271577493 H 0.0 **** 0.06
14478 H 108.6231846736502 163.80254624478593 126.95016528160554 H 0.0 **** 0.06
14479 H 109.48389751853523 164.51629794047548 125.56491821548713 H 0.0 **** 0.06
14480 H 110.31814200391835 164.31887564430434 127.12456177904289 H 0.0 **** 0.06
14481 C 167.1820766238804 109.259858387621 69.05222111365825 C 0.0 **** -0.24
14482 H 167.03447662832062 108.20469056295215 68.81761005914235 H 0.0 **** 0.06
14483 H 168.24485569525166 109.49612651310431 69.00664498273714 H 0.0 **** 0.06
14484 H 166.80557515253793 109.46453886700064 70.05438363788092 H 0.0 **** 0.06
14485 H 166.64142950974488 109.87101604870873 68.32938074253991 H 0.0 **** 0.06
14486 C 168.51182906860737 162.94932326858344 139.84989378787455 C 0.0 **** -0.24
14487 H 169.30342307897968 162.37874598181196 139.36420698889006 H 0.0 **** 0.06
14488 H 168.8995138896924 163.92185044747708 140.15498161314775 H 0.0 **** 0.06
14489 H 168.16101545526143 162.40715252210498 140.7286337415113 H 0.0 **** 0.06
14490 H 167.68541747551453 163.0894997000288 139.15393933539542 H 0.0 **** 0.06
14491 C 103.11430933536695 144.01784549508713 171.8241645142661 C 0.0 **** -0.24
14492 H 103.14641445540931 143.7801399890852 172.88738581536842 H 0.0 **** 0.06
14493 H 103.90628219532655 143.47682936012353 171.30650467430138 H 0.0 **** 0.06
14494 H 103.25642475946034 145.09024909425227 171.6879920833888 H 0.0 **** 0.06
14495 H 102.14688697901943 143.7259156411124 171.4159671109348 H 0.0 **** 0.06
14496 C 47.20330779723909 26.96680972306737 73.201645659409 C 0.0 **** -0.24
14497 H 46.44085607086339 26.61999738061718 72.50352333934453 H 0.0 **** 0.06
14498 H 46.7502772434528 27.13478551019284 74.17936528854904 H 0.0 **** 0.06
14499 H 47.633928831547365 27.898486835915747 72.8352545351184 H 0.0 **** 0.06
14500 H 47.9866713986753 26.213159094936117 73.28875717039767 H 0.0 **** 0.06
14501 C 82.58631777798317 152.1891924073066 13.037894771372805 C 0.0 **** -0.24
14502 H 81.74534429408703 152.53878160223329 13.636120612861816 H 0.0 **** 0.06
14503 H 82.21470376582039 151.73911206118976 12.116625033747141 H 0.0 **** 0.06
14504 H 83.15032058952727 151.44677484457702 13.603897615134429 H 0.0 **** 0.06
14505 H 83.23520923430084 153.03117081466416 12.795955861308471 H 0.0 **** 0.06
14506 C 59.957140116623975 142.10639276197355 112.31392487720649 C 0.0 **** -0.24
14507 H 59.80262485049667 141.16742611953563 111.78069236571099 H 0.0 **** 0.06
14508 H 61.02052952372725 142.34593157382284 112.32739033712954 H 0.0 **** 0.06
14509 H 59.593490154198776 142.00558143324727 113.33718388833404 H 0.0 **** 0.06
14510 H 59.41087086198752 142.90318281212168 111.81054166067389 H 0.0 **** 0.06
14511 C 43.267825178318844 22.371625229106904 27.48239064889856 C 0.0 **** -0.24
14512 H 43.377594371379644 22.921488049880807 26.546786120404022 H 0.0 **** 0.06
14513 H 43.00474067120905 21.33639904873902 27.265846255946173 H 0.0 **** 0.06
14514 H 42.48125539818139 22.828796965793416 28.082023991522078 H 0.0 **** 0.06
14515 H 44.20788569978282 22.401682373377817 28.03256330077062 H 0.0 **** 0.06
14516 C 71.13679775039908 92.77039993857437 113.86456681364925 C 0.0 **** -0.24
14517 H 72.01302764350977 93.38541906046876 114.07238132275415 H 0.0 **** 0.06
14518 H 70.23843871521122 93.29870819931406 114.18619649588473 H 0.0 **** 0.06
14519 H 71.21846109289221 91.82814789643314 114.40729178938477 H 0.0 **** 0.06
14520 H 71.07893777721516 92.57083425779877 112.79538399580966 H 0.0 **** 0.06
14521 C 73.96564184798714 51.07649332401195 136.03237388019826 C 0.0 **** -0.24
14522 H 73.23169063490808 51.863658131277546 135.85972867028232 H 0.0 **** 0.06
14523 H 73.60476682516281 50.40860114508003 136.8145589227857 H 0.0 **** 0.06
14524 H 74.91028606210524 51.522567234344464 136.34219405143418 H 0.0 **** 0.06
14525 H 74.11493149674993 50.511612465691 135.11202046395502 H 0.0 **** 0.06
14526 C 90.06490891253355 120.33887483084743 139.91239546805934 C 0.0 **** -0.24
14527 H 91.05288023985656 120.79835064571682 139.87311652978485 H 0.0 **** 0.06
14528 H 89.65581273258168 120.44537759420666 140.9170604174904 H 0.0 **** 0.06
14529 H 90.14498757962838 119.28109307098418 139.66247481774505 H 0.0 **** 0.06
14530 H 89.40637243667379 120.83262775436344 139.19708646198015 H 0.0 **** 0.06
14531 C 103.8902193827677 14.905466254820823 26.52107605998185 C 0.0 **** -0.24
14532 H 103.82387653634908 15.966240660215277 26.7608623101234 H 0.0 **** 0.06
14533 H 104.03584404199432 14.784338821873746 25.4471320110473 H 0.0 **** 0.06
14534 H 102.96784758024768 14.4073406021582 26.820330611930245 H 0.0 **** 0.06
14535 H 104.73202609107162 14.463654961860016 27.054171201728963 H 0.0 **** 0.06
14536 C 13.542186487262292 142.6273699650314 16.66814454829671 C 0.0 **** -0.24
14537 H 12.53086353735354 142.22138814639595 16.630903931819887 H 0.0 **** 0.06
14538 H 13.900005031406614 142.61510578272288 17.697449970314665 H 0.0 **** 0.06
14539 H 13.53586549425178 143.65172651968973 16.296627578875587 H 0.0 **** 0.06
14540 H 14.200123508350138 142.0190711567185 16.046793081098713 H 0.0 **** 0.06
14541 C 56.19748825432511 41.38004953935854 124.91000303148803 C 0.0 **** -0.24
14542 H 55.72134963029494 42.235735690567054 124.42977345498315 H 0.0 **** 0.06
14543 H 55.835379136619025 40.460135511656574 124.45215008285368 H 0.0 **** 0.06
14544 H 55.95376597929433 41.3780947564606 125.97229904023669 H 0.0 **** 0.06
14545 H 57.277886663990145 41.448813924267654 124.78485948132857 H 0.0 **** 0.06
14546 C 27.385426035219382 46.663287170088665 153.88967241683665 C 0.0 **** -0.24
14547 H 26.93324402724366 46.87548103866533 154.85894606421584 H 0.0 **** 0.06
14548 H 27.91928051332667 45.71494472877646 153.93884718752074 H 0.0 **** 0.06
14549 H 28.08282990196949 47.460949909251696 153.632186088022 H 0.0 **** 0.06
14550 H 26.605656432135078 46.60293538314309 153.1307519993303 H 0.0 **** 0.06
14551 C 149.724011154895 77.30305881502036 117.05511256356107 C 0.0 **** -0.24
14552 H 148.8502841144122 77.6654226767303 117.59723495699234 H 0.0 **** 0.06
14553 H 150.3431950563732 76.70526581181565 117.72379784111604 H 0.0 **** 0.06
14554 H 150.3001963061263 78.15028566852597 116.68578281696591 H 0.0 **** 0.06
14555 H 149.39996345893982 76.68911465397457 116.21441293833419 H 0.0 **** 0.06
14556 C 137.27235072845957 10.259690663265758 36.79442243506054 C 0.0 **** -0.24
14557 H 137.5278046063582 11.209094499765172 36.324501337103115 H 0.0 **** 0.06
14558 H 136.19268552603953 10.20216445606647 36.93429017138344 H 0.0 **** 0.06
14559 H 137.76970602109708 10.188363830163723 37.76194318066602 H 0.0 **** 0.06
14560 H 137.60035870785313 9.439035485675362 36.15566578569535 H 0.0 **** 0.06
14561 C 133.00219456695734 108.16067980220791 98.44693552600017 C 0.0 **** -0.24
14562 H 131.96330943513007 107.8377417419826 98.52096865150378 H 0.0 **** 0.06
14563 H 133.04561271523414 109.13339442245766 97.95664140345775 H 0.0 **** 0.06
14564 H 133.5674708713996 107.43348324018115 97.8628138903212 H 0.0 **** 0.06
14565 H 133.43104118553455 108.23663156767839 99.44629937393469 H 0.0 **** 0.06
14566 C 115.14222887894206 101.73039961863623 3.6695198484519835 C 0.0 **** -0.24
14567 H 116.0523295634076 102.27462291570237 3.4164428967717697 H 0.0 **** 0.06
14568 H 114.96367192904529 100.95692392321308 2.9227695954671162 H 0.0 **** 0.06
14569 H 114.29948998531881 102.42207081039186 3.6860221722307074 H 0.0 **** 0.06
14570 H 115.25498079065946 101.27079364306064 4.650930318701995 H 0.0 **** 0.06
14571 C 48.37113609963065 32.84620247203188 150.00065604654978 C 0.0 **** -0.24
14572 H 48.12357437079582 32.3119130353642 149.08409118898336 H 0.0 **** 0.06
14573 H 48.54394989305395 32.12914398880119 150.80349147355042 H 0.0 **** 0.06
14574 H 47.54458846841423 33.50379661454474 150.27240442271656 H 0.0 **** 0.06
14575 H 49.271487999499755 33.43986853725562 149.84295620525285 H 0.0 **** 0.06
14576 C 19.618973395330812 8.268116933822796 74.88159193804647 C 0.0 **** -0.24
14577 H 20.579369971221638 7.925643321225522 74.49624478570298 H 0.0 **** 0.06
14578 H 18.847588367005244 7.539155487559356 74.63285404749043 H 0.0 **** 0.06
14579 H 19.369643255469725 9.229268146452142 74.43173860681962 H 0.0 **** 0.06
14580 H 19.679992169757384 8.378894357606868 75.96440506462369 H 0.0 **** 0.06
14581 C 66.81817660763745 97.52903317121743 83.71345939068163 C 0.0 **** -0.24
14582 H 65.80088543174519 97.32309025547127 83.38233353635576 H 0.0 **** 0.06
14583 H 66.99809817262845 97.03179384032444 84.66726099389945 H 0.0 **** 0.06
14584 H 66.94978895781688 98.60502772048449 83.83372636321923 H 0.0 **** 0.06
14585 H 67.52428203829288 97.15840698160508 82.97083262374187 H 0.0 **** 0.06
14586 C 61.635624989952746 111.56371833447872 65.06424511585824 C 0.0 **** -0.24
14587 H 60.57793016418459 111.816450402812 64.99033746504375 H 0.0 **** 0.06
14588 H 61.79495975960829 110.91732910245562 65.92739260064228 H 0.0 **** 0.06
14589 H 62.21920238568296 112.47749564317976 65.18099985238194 H 0.0 **** 0.06
14590 H 61.94872301389596 111.04498469638375 64.15874017614256 H 0.0 **** 0.06
14591 C 172.2912181638149 68.72333785586703 171.6672506153995 C 0.0 **** -0.24
14592 H 173.2937834251145 68.81089561310436 172.08639346892676 H 0.0 **** 0.06
14593 H 171.8105640127659 69.70183965013857 171.66739774202105 H 0.0 **** 0.06
14594 H 171.70538722229026 68.0300789969568 172.27138095432872 H 0.0 **** 0.06
14595 H 172.35668262470847 68.34913920183658 170.64574342115498 H 0.0 **** 0.06
14596 C 97.50859896544256 67.67825368555896 47.91263096993808 C 0.0 **** -0.24
14597 H 96.45675267538462 67.5230509786438 48.149992826082126 H 0.0 **** 0.06
14598 H 97.59459834025648 68.40005467062252 47.09908214496642 H 0.0 **** 0.06
14599 H 97.95616514509203 66.73225711006512 47.607167075120856 H 0.0 **** 0.06
14600 H 98.0274349715464 68.05842060291323 48.792256731708164 H 0.0 **** 0.06
14601 C 72.71893549490404 148.89759101741018 13.433603888937391 C 0.0 **** -0.24
14602 H 72.90166990937563 149.97046364013974 13.38514134983469 H 0.0 **** 0.06
14603 H 73.18630168840578 148.48937873311118 14.329845911586816 H 0.0 **** 0.06
14604 H 73.14310375654503 148.41724098839677 12.551454048405112 H 0.0 **** 0.06
14605 H 71.64522253798205 148.71332492361287 13.46667460677262 H 0.0 **** 0.06
14606 C 1.6053620254059808 117.65287224431805 94.90763181060254 C 0.0 **** -0.24
14607 H 1.8535911562395881 116.70437677443167 94.43081125561167 H 0.0 **** 0.06
14608 H 1.8095254166857444 118.47095383660562 94.21577124287168 H 0.0 **** 0.06
14609 H 2.208757098188869 117.77737486310596 95.80638742143668 H 0.0 **** 0.06
14610 H 0.5489803178934096 117.65863710328395 95.175936927143 H 0.0 **** 0.06
14611 C 160.74608475894019 6.359533862464218 162.83791402509496 C 0.0 **** -0.24
14612 H 160.12889640070006 5.652379938173169 162.2834800337785 H 0.0 **** 0.06
14613 H 161.00990790051452 5.930032914212461 163.80445242325783 H 0.0 **** 0.06
14614 H 160.1894437628132 7.284527479859776 162.99111264585054 H 0.0 **** 0.06
14615 H 161.6541922198069 6.571050822320501 162.27378320039875 H 0.0 **** 0.06
14616 C 85.6676523144509 130.16863417947303 66.18553048209462 C 0.0 **** -0.24
14617 H 85.01121477524822 129.3745850366277 65.83082373443865 H 0.0 **** 0.06
14618 H 86.30967542599609 129.78288263483483 66.9786044427504 H 0.0 **** 0.06
14619 H 85.06655563463775 130.99170731159796 66.57229215632921 H 0.0 **** 0.06
14620 H 86.28528982020661 130.52474282391506 65.36071065677963 H 0.0 **** 0.06
14621 C 68.091534594783 134.05514215905797 127.51391099212546 C 0.0 **** -0.24
14622 H 69.042562510769 134.30522705348665 127.98426579137754 H 0.0 **** 0.06
14623 H 68.03631059435108 132.97743592840084 127.35696895208821 H 0.0 **** 0.06
14624 H 68.01534475276294 134.56618712708712 126.55423327045361 H 0.0 **** 0.06
14625 H 67.27273231232849 134.37056079420404 128.16014939739216 H 0.0 **** 0.06
14626 C 146.77371461308724 125.11413406114713 116.68139358028745 C 0.0 **** -0.24
14627 H 147.8222985956136 125.20456434624049 116.3955593335836 H 0.0 **** 0.06
14628 H 146.1873144216495 124.8040177367794 115.81610641165247 H 0.0 **** 0.06
14629 H 146.41078758891473 126.07767897883059 117.03965097711887 H 0.0 **** 0.06
14630 H 146.6758202599932 124.37139339415785 117.47288152777273 H 0.0 **** 0.06
14631 C 132.83509218590154 121.48877565457119 116.29666344355726 C 0.0 **** -0.24
14632 H 133.53304831281406 122.30476188013279 116.48375407981317 H 0.0 **** 0.06
14633 H 133.18184540422018 120.9013467217134 115.44590632941802 H 0.0 **** 0.06
14634 H 131.8486602077185 121.89723523617306 116.07789667806733 H 0.0 **** 0.06
14635 H 132.77681481885355 120.85175878026547 117.17909668693076 H 0.0 **** 0.06
14636 C 0.48739998569305953 160.63725327050275 75.71656257240335 C 0.0 **** -0.24
14637 H 0.9020411041958596 161.50469249102304 75.20322435957553 H 0.0 **** 0.06
14638 H -0.2532789570014984 160.96750109562046 76.4460660415661 H 0.0 **** 0.06
14639 H 1.2871043538517597 160.10217484090865 76.22714081197057 H 0.0 **** 0.06
14640 H 0.01396298281736108 159.97779849669172 74.98978959131841 H 0.0 **** 0.06
14641 C 60.44013721003114 140.2781023213839 143.60341951126236 C 0.0 **** -0.24
14642 H 59.60477433683036 140.3220556970074 144.30246612272197 H 0.0 **** 0.06
14643 H 60.59061642309928 141.26066149826687 143.1564892624591 H 0.0 **** 0.06
14644 H 60.220147148917476 139.55234940330098 142.8208632875339 H 0.0 **** 0.06
14645 H 61.342265944115525 139.9779758766563 144.1348910542996 H 0.0 **** 0.06
14646 C 91.16283233112146 157.6863517324075 163.79402674620516 C 0.0 **** -0.24
14647 H 90.52020433494373 157.44225491127509 162.9486226049869 H 0.0 **** 0.06
14648 H 91.97760948817671 158.32878505555857 163.4576982769028 H 0.0 **** 0.06
14649 H 91.57363741006608 156.7681263097519 164.21383080312458 H 0.0 **** 0.06
14650 H 90.58011340041617 158.20530245787512 164.55492356567967 H 0.0 **** 0.06
14651 C 149.98070269408188 3.6837868871761543 171.8624157852343 C 0.0 **** -0.24
14652 H 150.08455971781706 3.7124629850886777 172.94615077536827 H 0.0 **** 0.06
14653 H 150.856337470122 3.202899688578924 171.42648181760873 H 0.0 **** 0.06
14654 H 149.89505329898952 4.70067167696709 171.47824431975212 H 0.0 **** 0.06
14655 H 149.0864302095878 3.1192638643976522 171.5978960827449 H 0.0 **** 0.06
14656 C 76.61034453671387 13.862339809263105 62.677248029830466 C 0.0 **** -0.24
14657 H 75.63813229243839 14.133099166449888 63.08946146564355 H 0.0 **** 0.06
14658 H 76.47821454697262 13.455726260451108 61.67438648179346 H 0.0 **** 0.06
14659 H 77.07772073541155 13.110872229255556 63.31508437445743 H 0.0 **** 0.06
14660 H 77.2449119546927 14.746236444634114 62.63129089740309 H 0.0 **** 0.06
14661 C 73.41547265107721 92.6300814553081 153.69753082220026 C 0.0 **** -0.24
14662 H 72.94671213614055 93.56142182370988 153.38074719645226 H 0.0 **** 0.06
14663 H 73.14891508850098 91.83412183576863 153.00132498441633 H 0.0 **** 0.06
14664 H 73.067121967074 92.36976230383601 154.69776677775917 H 0.0 **** 0.06
14665 H 74.498114997845 92.75411342746457 153.7106377597451 H 0.0 **** 0.06
14666 C 160.2574253612786 109.98798445696127 66.00032884551577 C 0.0 **** -0.24
14667 H 160.29559717572369 109.43838881723534 66.94130214687844 H 0.0 **** 0.06
14668 H 159.3125203593529 110.5286911616518 65.93473905053648 H 0.0 **** 0.06
14669 H 160.33563811388115 109.28901525040297 65.16828078965794 H 0.0 **** 0.06
14670 H 161.0851417365442 110.69582213465938 65.96064763368165 H 0.0 **** 0.06
14671 C 26.035006225605684 73.45112735917485 137.54344064152667 C 0.0 **** -0.24
14672 H 26.868131816134962 72.8803739439478 137.13297081175367 H 0.0 **** 0.06
14673 H 26.306361052667853 73.8320726502912 138.5269498537382 H 0.0 **** 0.06
14674 H 25.16123915416631 72.80463687938385 137.63106699150495 H 0.0 **** 0.06
14675 H 25.804050423430226 74.28488606766626 136.88003802448884 H 0.0 **** 0.06
14676 C 13.27508610422381 163.3804610132977 101.7229382434229 C 0.0 **** -0.24
14677 H 14.33727783538513 163.14371225746527 101.67382715427351 H 0.0 **** 0.06
14678 H 13.138654504691992 164.45880388807674 101.63147625373932 H 0.0 **** 0.06
14679 H 12.871427182149269 163.04297537232313 102.67789956250186 H 0.0 **** 0.06
14680 H 12.752447190358446 162.87767276801628 100.90953384437978 H 0.0 **** 0.06
14681 C 110.7825984249015 147.4654733585213 93.32750047540549 C 0.0 **** -0.24
14682 H 110.86857050364728 147.28858902552338 92.25483279492423 H 0.0 **** 0.06
14683 H 111.77216325970676 147.42863522778507 93.78199640343459 H 0.0 **** 0.06
14684 H 110.1490493221562 146.69877029410955 93.77246800864683 H 0.0 **** 0.06
14685 H 110.33908588777763 148.44636330363895 93.49816308529975 H 0.0 **** 0.06
14686 C 166.9495712458651 98.52808384652585 83.78466035598046 C 0.0 **** -0.24
14687 H 166.90736801070693 97.79721481499891 82.97659689716585 H 0.0 **** 0.06
14688 H 167.42512356251 99.44072947415614 83.42503117755643 H 0.0 **** 0.06
14689 H 167.52691582187575 98.1198101779074 84.61428559811128 H 0.0 **** 0.06
14690 H 165.93832824322408 98.75374712828528 84.12278289472806 H 0.0 **** 0.06
14691 C 3.1045187253081608 132.7511758260195 38.359290011610994 C 0.0 **** -0.24
14692 H 2.3638049555402247 133.51373302936196 38.6001630275685 H 0.0 **** 0.06
14693 H 2.986322366730107 132.4465821655548 37.31885955276027 H 0.0 **** 0.06
14694 H 2.962310937452102 131.8882236108291 39.00936738227233 H 0.0 **** 0.06
14695 H 4.104897424567845 133.15818147578682 38.50814919744579 H 0.0 **** 0.06
14696 C 99.7939491684804 111.30079542529509 65.54596121948623 C 0.0 **** -0.24
14697 H 99.186268434178 112.14396641497405 65.21632958601761 H 0.0 **** 0.06
14698 H 100.76285343713903 111.33564590571649 65.0476519251863 H 0.0 **** 0.06
14699 H 99.2878117041302 110.36821027382422 65.29358644100317 H 0.0 **** 0.06
14700 H 99.93679178101308 111.35666318578456 66.62454220010714 H 0.0 **** 0.06
14701 C 90.53407889587263 126.22188782936234 28.889274859574826 C 0.0 **** -0.24
14702 H 90.96911288113967 126.53910213225319 29.83642145381654 H 0.0 **** 0.06
14703 H 90.2850740226173 125.16191380578658 28.94055672354891 H 0.0 **** 0.06
14704 H 91.25176483845814 126.38845071415173 28.086428760989847 H 0.0 **** 0.06
14705 H 89.63036384127557 126.79808466525782 28.693692499944206 H 0.0 **** 0.06
14706 C 120.64183802947841 109.08247740613749 76.17468837968481 C 0.0 **** -0.24
14707 H 121.05499086193765 109.07888349075137 77.18354665368263 H 0.0 **** 0.06
14708 H 121.44964032906424 109.19293563621085 75.45176335684705 H 0.0 **** 0.06
14709 H 119.94341912544945 109.91275925250821 76.07026005989218 H 0.0 **** 0.06
14710 H 120.11855344485309 108.14300857796545 75.99339639773493 H 0.0 **** 0.06
14711 C 3.538294207607194 113.72878381495093 57.30062723814524 C 0.0 **** -0.24
14712 H 3.5751798932232433 112.96883759691372 58.08096009558909 H 0.0 **** 0.06
14713 H 4.479007637392122 113.72854566617718 56.74959331480733 H 0.0 **** 0.06
14714 H 3.38302744272395 114.70759243790272 57.75523708965909 H 0.0 **** 0.06
14715 H 2.7168193198797326 113.5094073961694 56.61864176960398 H 0.0 **** 0.06
14716 C 137.9156470120189 9.738587943397135 120.10127157949839 C 0.0 **** -0.24
14717 H 137.62968769395542 8.808561226511983 119.60944155424215 H 0.0 **** 0.06
14718 H 138.70007245673378 10.228396011550728 119.5237726782992 H 0.0 **** 0.06
14719 H 138.28526229668205 9.520014279951909 121.10365539303359 H 0.0 **** 0.06
14720 H 137.049113526834 10.39554084257287 120.16868642862127 H 0.0 **** 0.06
14721 C 138.19321360339097 117.16080782573476 12.239580653163927 C 0.0 **** -0.24
14722 H 137.76955956361098 116.8012064946281 11.301946226470307 H 0.0 **** 0.06
14723 H 137.78174515884064 116.58363350089473 13.068807858107391 H 0.0 **** 0.06
14724 H 137.94353762221363 118.21389266493367 12.37080726359352 H 0.0 **** 0.06
14725 H 139.27678242490637 117.04380074026486 12.216730215963452 H 0.0 **** 0.06
14726 C 96.60144073989096 92.58268770939452 163.78974024348918 C 0.0 **** -0.24
14727 H 97.42533732348903 91.90300267171571 164.00775368304548 H 0.0 **** 0.06
14728 H 96.99270957860023 93.4953876033982 163.34046217762318 H 0.0 **** 0.06
14729 H 96.07849741923263 92.82775413501693 164.71422059369016 H 0.0 **** 0.06
14730 H 95.91015449416142 92.10315586399986 163.09638266340818 H 0.0 **** 0.06
14731 C 92.52064819278627 8.990283651957412 15.643253735369115 C 0.0 **** -0.24
14732 H 91.6780997907959 8.524237149443508 15.132232173804596 H 0.0 **** 0.06
14733 H 93.09805801831362 9.57627019001086 14.929329502673454 H 0.0 **** 0.06
14734 H 93.15527072533075 8.216751457784312 16.077432745534566 H 0.0 **** 0.06
14735 H 92.1503592740878 9.64165723176518 16.434676347772722 H 0.0 **** 0.06
14736 C 72.81056541661202 80.32939862220266 76.030790504952 C 0.0 **** -0.24
14737 H 73.03235248088495 80.46982937102001 77.08868931237396 H 0.0 **** 0.06
14738 H 72.30754426329528 79.37339652430708 75.88898830277162 H 0.0 **** 0.06
14739 H 73.73894381843861 80.34024149951449 75.46128799332988 H 0.0 **** 0.06
14740 H 72.16368672872144 81.13622560906353 75.68607414967127 H 0.0 **** 0.06
14741 C 50.04720685632671 90.68683946889566 12.681895092935264 C 0.0 **** -0.24
14742 H 49.79426794370542 89.7527097729361 12.180133387247622 H 0.0 **** 0.06
14743 H 49.13150780478584 91.19238702808926 12.990467824836884 H 0.0 **** 0.06
14744 H 50.60357770563982 91.32715000032837 11.996247129420937 H 0.0 **** 0.06
14745 H 50.659704504505726 90.47415684253588 13.558079386325232 H 0.0 **** 0.06
14746 C 59.39309453295101 130.04095123351786 91.1895830765161 C 0.0 **** -0.24
14747 H 58.45986587299113 129.699096219205 90.74264506452437 H 0.0 **** 0.06
14748 H 59.58013922807625 131.07338137259808 90.89428073157734 H 0.0 **** 0.06
14749 H 60.21253509578564 129.4100350142488 90.84681632896371 H 0.0 **** 0.06
14750 H 59.31890085948804 129.9808028374111 92.27552951288078 H 0.0 **** 0.06
14751 C 71.79524430947863 63.746235385536295 147.9888740654788 C 0.0 **** -0.24
14752 H 72.29217342217511 64.71355889558436 148.0732358783049 H 0.0 **** 0.06
14753 H 70.74491378276907 63.8995045476658 147.74030105004346 H 0.0 **** 0.06
14754 H 71.87026168897435 63.214853843421054 148.93775669363905 H 0.0 **** 0.06
14755 H 72.27300747093321 63.16010335086713 147.203836624192 H 0.0 **** 0.06
14756 C 14.094878036768762 10.382816934095217 37.664741567381 C 0.0 **** -0.24
14757 H 14.20602630700239 9.494805406504241 37.04257537471021 H 0.0 **** 0.06
14758 H 13.303009329287647 11.012918392850402 37.2587067038192 H 0.0 **** 0.06
14759 H 15.032419920135595 10.938459193326892 37.676102672806024 H 0.0 **** 0.06
14760 H 13.837492816118441 10.083825002305893 38.6812728666642 H 0.0 **** 0.06
14761 C 44.48754773099472 109.03677985311268 19.780078337242685 C 0.0 **** -0.24
14762 H 43.658784065064594 108.40196159030936 20.09296766947989 H 0.0 **** 0.06
14763 H 44.73971095813192 108.81920089775403 18.741764167157385 H 0.0 **** 0.06
14764 H 45.3533100668179 108.84238113008573 20.41314065597072 H 0.0 **** 0.06
14765 H 44.19838583396444 110.08357579430157 19.872440856362687 H 0.0 **** 0.06
14766 C 12.410087763353033 80.41960284069106 164.2921798746615 C 0.0 **** -0.24
14767 H 12.83150264222536 81.24271260067397 164.86778560862336 H 0.0 **** 0.06
14768 H 12.990967561739637 80.27857748600987 163.38046187748313 H 0.0 **** 0.06
14769 H 11.376553849396032 80.6478017204364 164.03428247643672 H 0.0 **** 0.06
14770 H 12.442211005672704 79.50688727493208 164.88770703272095 H 0.0 **** 0.06
14771 C 140.06768294874655 127.73116429454302 158.5754143021764 C 0.0 **** -0.24
14772 H 140.97619258379027 128.31009471524226 158.40989393574716 H 0.0 **** 0.06
14773 H 139.375042340341 128.3100080505939 159.18665409775656 H 0.0 **** 0.06
14774 H 140.3169850154564 126.80281296173015 159.08920945961376 H 0.0 **** 0.06
14775 H 139.60323959841037 127.50257039633343 157.61723512671773 H 0.0 **** 0.06
14776 C 48.169071930065186 159.16110355172015 14.092432009027334 C 0.0 **** -0.24
14777 H 49.08264672023819 158.9895784539431 14.661978703837917 H 0.0 **** 0.06
14778 H 47.31291722251994 159.1507233971675 14.767027855851381 H 0.0 **** 0.06
14779 H 48.054287868896424 158.37530783754727 13.34642136955739 H 0.0 **** 0.06
14780 H 48.2292172987533 160.1295594146107 13.595133324529513 H 0.0 **** 0.06
14781 C 53.149093585179926 75.1542726477903 23.013616958167972 C 0.0 **** -0.24
14782 H 52.66038433598716 74.19271199234097 22.85695312309514 H 0.0 **** 0.06
14783 H 53.14726163084991 75.71787116086547 22.080084112614713 H 0.0 **** 0.06
14784 H 54.176496294786176 74.98976090300654 23.337743062159916 H 0.0 **** 0.06
14785 H 52.61258139872848 75.71468418751073 23.778412832314046 H 0.0 **** 0.06
14786 C 24.888348990813945 56.89194014170468 84.31567343871484 C 0.0 **** -0.24
14787 H 25.298540587933452 57.90032765037033 84.35884332751624 H 0.0 **** 0.06
14788 H 24.0588705122124 56.867452075612164 83.6085489880528 H 0.0 **** 0.06
14789 H 24.531146507060413 56.60266167867934 85.30502504306213 H 0.0 **** 0.06
14790 H 25.664089777011405 56.19793997312614 83.99252459345138 H 0.0 **** 0.06
14791 C 3.276904609485385 142.4567669952084 60.375449245063024 C 0.0 **** -0.24
14792 H 3.2547221564101463 142.86318662858287 59.36442936504288 H 0.0 **** 0.06
14793 H 3.905764725395464 143.08578252948553 61.00546320968425 H 0.0 **** 0.06
14794 H 3.6811057580950504 141.44469934887337 60.351372294650105 H 0.0 **** 0.06
14795 H 2.2641933047791483 142.43392070827048 60.77936146027476 H 0.0 **** 0.06
14796 C 116.4053380009864 91.50999164364096 78.0526261677885 C 0.0 **** -0.24
14797 H 115.93847909741709 90.52588143990697 78.01282599671913 H 0.0 **** 0.06
14798 H 116.50618261619695 91.90550476513428 77.04133295947872 H 0.0 **** 0.06
14799 H 117.39085487673981 91.4261783886794 78.51089575640674 H 0.0 **** 0.06
14800 H 115.78487199368524 92.18217831006615 78.64559767922924 H 0.0 **** 0.06
14801 C 171.82572011423974 124.59153170362168 81.82663726832104 C 0.0 **** -0.24
14802 H 172.37322245311867 124.77756384671602 82.75117793520221 H 0.0 **** 0.06
14803 H 172.5006178765459 124.69966450927438 80.97697173414356 H 0.0 **** 0.06
14804 H 171.01015602473024 125.30866531252343 81.7369000382177 H 0.0 **** 0.06
14805 H 171.42055530002756 123.57999969807236 81.8429665878498 H 0.0 **** 0.06
14806 C 137.82999216093157 152.89278338643723 56.68426089881228 C 0.0 **** -0.24
14807 H 137.4655016800727 152.5621667996811 55.711633761278506 H 0.0 **** 0.06
14808 H 138.26381864520306 153.88850656085586 56.58947618538909 H 0.0 **** 0.06
14809 H 138.5888403831891 152.19803101072893 57.043374641311345 H 0.0 **** 0.06
14810 H 137.00056658233234 152.9227600015462 57.39139724991327 H 0.0 **** 0.06
14811 C 164.32654914905535 113.66921959084348 35.2371712090295 C 0.0 **** -0.24
14812 H 165.32350308665633 113.99420720130541 34.94059564143876 H 0.0 **** 0.06
14813 H 164.28100638148686 112.57998242051076 35.22351673191541 H 0.0 **** 0.06
14814 H 163.59218019862186 114.07280673601022 34.53968224008541 H 0.0 **** 0.06
14815 H 164.11006355322243 114.03075840011462 36.24225919132151 H 0.0 **** 0.06
14816 C 72.93453676161923 142.66147571587157 112.07926192394996 C 0.0 **** -0.24
14817 H 72.72424443763823 142.1805244406666 111.12424245801512 H 0.0 **** 0.06
14818 H 72.17632380579079 142.37074838676168 112.80711420895548 H 0.0 **** 0.06
14819 H 72.92023193683133 143.74412970046092 111.95154770352966 H 0.0 **** 0.06
14820 H 73.91704635408318 142.34929141685555 112.43347380024562 H 0.0 **** 0.06
14821 C 27.498275190663378 43.292333216010206 6.480115461469708 C 0.0 **** -0.24
14822 H 27.65089292382214 42.458223748017275 7.164852200777595 H 0.0 **** 0.06
14823 H 26.45989611012294 43.61965697599845 6.533023194178099 H 0.0 **** 0.06
14824 H 27.728160125897546 42.9735331605215 5.463278387220491 H 0.0 **** 0.06
14825 H 28.154885939007784 44.11678583356729 6.760392874484509 H 0.0 **** 0.06
14826 C 1.6968424401844686 8.900658441166428 65.15402595213308 C 0.0 **** -0.24
14827 H 0.8487591376394334 9.206640151878446 64.54200955447212 H 0.0 **** 0.06
14828 H 2.532819951798899 8.630552966479371 64.50800594694941 H 0.0 **** 0.06
14829 H 1.4146080802966026 8.040506642438146 65.76159722354045 H 0.0 **** 0.06
14830 H 1.9917120221923597 9.723310456815511 65.8047807063837 H 0.0 **** 0.06
14831 C 33.09874827251343 47.696847244639685 95.87843045308855 C 0.0 **** -0.24
14832 H 32.86368855081929 46.74461128778236 96.35312274647819 H 0.0 **** 0.06
14833 H 33.257958031612645 47.541315276645065 94.81078431275319 H 0.0 **** 0.06
14834 H 34.003986971095856 48.11041546693359 96.3247167432894 H 0.0 **** 0.06
14835 H 32.272164932768305 48.39094822248538 96.02615643164972 H 0.0 **** 0.06
14836 C 136.95039359787575 31.560118118920485 85.517539824063 C 0.0 **** -0.24
14837 H 136.17547943316555 31.900475392129692 86.20421015391919 H 0.0 **** 0.06
14838 H 136.60654867336655 30.66571189200789 84.99643868238692 H 0.0 **** 0.06
14839 H 137.8563571803269 31.32869474560465 86.07746873691106 H 0.0 **** 0.06
14840 H 137.16104548380474 32.34459141639576 84.79140375966665 H 0.0 **** 0.06
14841 C 130.77056911488427 166.1669267836362 159.79295528501459 C 0.0 **** -0.24
14842 H 130.46133872389822 167.20763255898692 159.89343044903868 H 0.0 **** 0.06
14843 H 131.82217293503822 166.07305318163287 160.0626000836573 H 0.0 **** 0.06
14844 H 130.62903039581903 165.84439063264296 158.76139801113155 H 0.0 **** 0.06
14845 H 130.16798722660332 165.54369319179477 160.4534877484657 H 0.0 **** 0.06
14846 C 104.96957921796812 33.42230290529666 86.92635924075745 C 0.0 **** -0.24
14847 H 104.94771081715771 33.317447986964055 88.0105475876868 H 0.0 **** 0.06
14848 H 104.21416916299304 32.77292901289364 86.48286921021322 H 0.0 **** 0.06
14849 H 105.95469722079943 33.141806176654725 86.5539907644784 H 0.0 **** 0.06
14850 H 104.76210934528197 34.4577102278182 86.65739809997473 H 0.0 **** 0.06
14851 C 74.0207659509023 119.38522825348474 144.5200643243492 C 0.0 **** -0.24
14852 H 74.94267475113192 119.88600936945275 144.814581903472 H 0.0 **** 0.06
14853 H 73.99189648599439 119.28733439190714 143.43446653775857 H 0.0 **** 0.06
14854 H 73.1650780661888 119.97247808471565 144.85521071113632 H 0.0 **** 0.06
14855 H 73.98383197762628 118.39631793896393 144.9765645381868 H 0.0 **** 0.06
14856 C 125.23905098060476 67.0833825763476 166.89641845063844 C 0.0 **** -0.24
14857 H 125.32721787450106 66.04309288464448 166.58259979104176 H 0.0 **** 0.06
14858 H 124.55930894811473 67.6084132580793 166.22624257646606 H 0.0 **** 0.06
14859 H 126.22065115056995 67.55559210677892 166.8632908611491 H 0.0 **** 0.06
14860 H 124.851160313187 67.12363226243261 167.91480786950922 H 0.0 **** 0.06
14861 C 130.75855833344636 124.1894427313405 10.365418978508629 C 0.0 **** -0.24
14862 H 130.53703432612022 124.5436402447113 11.372492678959233 H 0.0 **** 0.06
14863 H 129.8966732111941 123.64907700709529 9.972789216308158 H 0.0 **** 0.06
14864 H 131.6215027592366 123.52438335305769 10.395702976847687 H 0.0 **** 0.06
14865 H 130.97860061355507 125.04069876622981 9.721597009362206 H 0.0 **** 0.06
14866 C 101.82326847997311 168.32831332828954 166.2204438594821 C 0.0 **** -0.24
14867 H 102.29944747079355 169.01616476559826 165.52142442812675 H 0.0 **** 0.06
14868 H 102.20464721557198 167.3200263647691 166.0531808953184 H 0.0 **** 0.06
14869 H 100.74491618198235 168.3398842311824 166.063467405375 H 0.0 **** 0.06
14870 H 102.04506863231649 168.63660175342463 167.24112258771183 H 0.0 **** 0.06
14871 C 141.90390429558215 46.153597321310826 77.86469045440829 C 0.0 **** -0.24
14872 H 141.23028075408143 45.41617061765962 78.3019699817429 H 0.0 **** 0.06
14873 H 142.74974692819683 46.31427691898688 78.53379995003411 H 0.0 **** 0.06
14874 H 141.3698642158315 47.09334728221873 77.72088011206205 H 0.0 **** 0.06
14875 H 142.2644291705027 45.78978347168044 76.90292569063946 H 0.0 **** 0.06
14876 C 20.77853886233987 149.4465925271204 107.25209546430685 C 0.0 **** -0.24
14877 H 21.067204772406598 150.29304662042148 106.62931891284774 H 0.0 **** 0.06
14878 H 21.52907493106568 149.29322443752227 108.02808518610516 H 0.0 **** 0.06
14879 H 20.704580964643952 148.55049815128785 106.63550702872331 H 0.0 **** 0.06
14880 H 19.812470243498325 149.64906083837042 107.71530191105475 H 0.0 **** 0.06
14881 C 150.21774546243083 66.02710416234608 84.08698199274033 C 0.0 **** -0.24
14882 H 150.42135247903246 66.73357261934719 84.89101162948043 H 0.0 **** 0.06
14883 H 149.15243775450085 66.03857642432034 83.85479439063516 H 0.0 **** 0.06
14884 H 150.5110540026216 65.02528873576236 84.4014309530017 H 0.0 **** 0.06
14885 H 150.78613761356863 66.31097886995428 83.2006909978441 H 0.0 **** 0.06
14886 C 86.8158616472228 74.0853090877701 162.2510439115703 C 0.0 **** -0.24
14887 H 86.36100545943657 74.8947463663016 161.6801601033692 H 0.0 **** 0.06
14888 H 87.2238839212539 74.4817826430862 163.18071305961047 H 0.0 **** 0.06
14889 H 87.6162891497533 73.63290004649821 161.66562691769926 H 0.0 **** 0.06
14890 H 86.06055293010606 73.33197813866605 162.47750459462065 H 0.0 **** 0.06
14891 C 84.62122834828496 121.90811906626493 23.355022817228416 C 0.0 **** -0.24
14892 H 84.86238391869222 121.37235101115144 24.27326612626439 H 0.0 **** 0.06
14893 H 83.58225226130953 121.71814017561786 23.086562608370855 H 0.0 **** 0.06
14894 H 85.27360639884219 121.56569909821471 22.552164416966093 H 0.0 **** 0.06
14895 H 84.76673394372683 122.97724841676725 23.510115509180423 H 0.0 **** 0.06
14896 C 1.1301968466270864 102.73722795646086 40.044097954328805 C 0.0 **** -0.24
14897 H 0.8503532340375841 103.74137079977652 40.36142407305641 H 0.0 **** 0.06
14898 H 0.347812137123924 102.0341735387434 40.33209078750457 H 0.0 **** 0.06
14899 H 2.06758260949681 102.45398017593303 40.52246267050768 H 0.0 **** 0.06
14900 H 1.2550459589536445 102.71944613777609 38.96141254695658 H 0.0 **** 0.06
14901 C 56.212459402930165 100.22689143090417 2.462662487594322 C 0.0 **** -0.24
14902 H 55.968458463326044 100.59998692574464 1.4675758072233052 H 0.0 **** 0.06
14903 H 55.72698474429882 100.8501562001191 3.213419811452411 H 0.0 **** 0.06
14904 H 57.29194726109182 100.25704819724075 2.6074060265060695 H 0.0 **** 0.06
14905 H 55.860964747118544 99.19963802870194 2.5607448429727313 H 0.0 **** 0.06
14906 C 166.8745493393631 11.402486680467042 47.153108349993516 C 0.0 **** -0.24
14907 H 166.66472272984936 10.370570402182253 47.43602140439987 H 0.0 **** 0.06
14908 H 166.0149733216686 11.81442789782998 46.62397726920729 H 0.0 **** 0.06
14909 H 167.7493114679687 11.42994609391041 46.50386697228896 H 0.0 **** 0.06
14910 H 167.06729631762994 11.992569291540875 48.049271454234756 H 0.0 **** 0.06
14911 C 151.48528515645282 166.93169881764163 50.45756131361401 C 0.0 **** -0.24
14912 H 152.43850303543383 166.69153654670782 49.98648706583447 H 0.0 **** 0.06
14913 H 150.94711547589617 166.0092967993812 50.67943772234801 H 0.0 **** 0.06
14914 H 150.8907303290974 167.54567418808583 49.781011988771525 H 0.0 **** 0.06
14915 H 151.66523101237263 167.47896616643746 51.383062330448894 H 0.0 **** 0.06
14916 C 2.4551163133895244 124.74889680597437 60.4608068400712 C 0.0 **** -0.24
14917 H 2.9319631378788955 125.58792684619092 59.952677011145454 H 0.0 **** 0.06
14918 H 2.7476463286409043 124.74711716637006 61.51064263567696 H 0.0 **** 0.06
14919 H 2.769710480418169 123.81576185394479 59.993331856439966 H 0.0 **** 0.06
14920 H 1.3718684902539167 124.84757465953763 60.385281736521165 H 0.0 **** 0.06
14921 C 2.002139115850241 113.53762849244922 70.05223816015098 C 0.0 **** -0.24
14922 H 1.5709988802577755 112.68595196356705 70.57832215490595 H 0.0 **** 0.06
14923 H 3.0603026556369173 113.61868951019875 70.29805553242636 H 0.0 **** 0.06
14924 H 1.4869926957831012 114.44919482890876 70.35459912874907 H 0.0 **** 0.06
14925 H 1.8876724224514874 113.39520247121166 68.97763386495086 H 0.0 **** 0.06
14926 C 22.857277361181445 118.2671409521293 68.34971101015452 C 0.0 **** -0.24
14927 H 23.44922483370513 117.41335490887599 68.02240882287904 H 0.0 **** 0.06
14928 H 23.201438434690914 118.59302929016513 69.331266984933 H 0.0 **** 0.06
14929 H 21.80762643593232 117.97968633232551 68.40875299157545 H 0.0 **** 0.06
14930 H 22.970335183927403 119.0825743506087 67.63508908589083 H 0.0 **** 0.06
14931 C 62.253363858671804 53.608149047900596 67.72937241069694 C 0.0 **** -0.24
14932 H 61.389169212919356 52.97525573930609 67.52652549492585 H 0.0 **** 0.06
14933 H 61.9775276207412 54.65416082648311 67.59163009852662 H 0.0 **** 0.06
14934 H 63.06065753489693 53.3512253785869 67.04389715971193 H 0.0 **** 0.06
14935 H 62.584861439391815 53.45215195175527 68.7560882684173 H 0.0 **** 0.06
14936 C 166.5408869896921 90.50912772226428 31.803810342262764 C 0.0 **** -0.24
14937 H 167.30889723203748 89.85273521307283 32.212183099164676 H 0.0 **** 0.06
14938 H 166.3296806952872 90.22411913462571 30.772914030950403 H 0.0 **** 0.06
14939 H 166.89395101973503 91.5410919616914 31.83077043320968 H 0.0 **** 0.06
14940 H 165.63262206434158 90.42123507276807 32.39882702590394 H 0.0 **** 0.06
14941 C 99.01558611236845 44.7408301801795 141.80058388270902 C 0.0 **** -0.24
14942 H 98.78679375101663 45.77502666293901 141.54178106709125 H 0.0 **** 0.06
14943 H 99.02000914838766 44.13267559213767 140.89634243118087 H 0.0 **** 0.06
14944 H 98.26072563381175 44.362981017192226 142.4897383186965 H 0.0 **** 0.06
14945 H 99.99639708046436 44.6944554016718 142.27491545295635 H 0.0 **** 0.06
14946 C 165.49011385051352 89.89252435142865 62.398675897052726 C 0.0 **** -0.24
14947 H 165.49297433576396 88.88531658934578 61.98092531181533 H 0.0 **** 0.06
14948 H 165.89426781802447 89.86705310190989 63.41133033410381 H 0.0 **** 0.06
14949 H 164.46809806113512 90.27138780802495 62.424529520501835 H 0.0 **** 0.06
14950 H 166.103987770214 90.54512513793523 61.77842176301249 H 0.0 **** 0.06
14951 C 108.14536348917642 76.15584384389217 49.74766623207289 C 0.0 **** -0.24
14952 H 108.20470546097096 75.83332575525543 48.70824774412344 H 0.0 **** 0.06
14953 H 108.18650372046909 77.24422406850874 49.79286754586353 H 0.0 **** 0.06
14954 H 108.98170281350434 75.73624923887098 50.30685769326452 H 0.0 **** 0.06
14955 H 107.2078003311479 75.80840044280217 50.18243238901172 H 0.0 **** 0.06
14956 C 142.54316664193723 121.23340092880863 149.17741958104227 C 0.0 **** -0.24
14957 H 142.53468629888624 120.68058160292588 150.11681995531026 H 0.0 **** 0.06
14958 H 141.85764249717857 120.76056437452604 148.47266608984236 H 0.0 **** 0.06
14959 H 143.55133736282068 121.2288769288848 148.76331994262026 H 0.0 **** 0.06
14960 H 142.22828809147126 122.26066656791767 149.35687974104684 H 0.0 **** 0.06
14961 C 125.3917854301344 60.572028944094654 98.9068159817352 C 0.0 **** -0.24
14962 H 124.86563082146603 59.633773005230125 98.73407260190365 H 0.0 **** 0.06
14963 H 126.45938967488178 60.377665750108406 99.00347143580325 H 0.0 **** 0.06
14964 H 125.0213747977009 61.032015154978694 99.82365286467123 H 0.0 **** 0.06
14965 H 125.21820442230279 61.245802657486365 98.06717925701588 H 0.0 **** 0.06
14966 C 153.07908858345462 46.792250920335576 53.57644208067322 C 0.0 **** -0.24
14967 H 154.0905401658264 47.16657813077873 53.73351535455515 H 0.0 **** 0.06
14968 H 152.7547512895012 47.034701298753646 52.56418601931068 H 0.0 **** 0.06
14969 H 152.40448483226663 47.256046477703705 54.29595138494736 H 0.0 **** 0.06
14970 H 153.06744844775724 45.71126851124089 53.71315236711166 H 0.0 **** 0.06
14971 C 171.46676755478387 167.70563198681356 153.1110149746204 C 0.0 **** -0.24
14972 H 171.16189246752475 166.70871793189883 153.42899567779915 H 0.0 **** 0.06
14973 H 172.07499320687702 167.63011246492903 152.2094737654754 H 0.0 **** 0.06
14974 H 172.04717700895134 168.17806874236265 153.90313273501255 H 0.0 **** 0.06
14975 H 170.58061940659454 168.3059433302151 152.90201265571582 H 0.0 **** 0.06
14976 C 93.88397419968442 77.84035295990657 1.8174885626935122 C 0.0 **** -0.24
14977 H 93.9745019319787 78.54227842446747 2.6466746494374433 H 0.0 **** 0.06
14978 H 92.87686875856133 77.89459544650342 1.4037270655745715 H 0.0 **** 0.06
14979 H 94.07569511330593 76.8284833235546 2.1757470448140452 H 0.0 **** 0.06
14980 H 94.60890393809501 78.09527265679043 1.044424523663821 H 0.0 **** 0.06
14981 C 160.10599945680497 0.8065211207413512 161.81715661882433 C 0.0 **** -0.24
14982 H 159.9505245712099 1.632705035375345 161.1227281424733 H 0.0 **** 0.06
14983 H 159.1423186184306 0.466659544450323 162.19810880675706 H 0.0 **** 0.06
14984 H 160.7277986605872 1.140962550403458 162.64680583929515 H 0.0 **** 0.06
14985 H 160.60177173284467 -0.014789519288164854 161.2991972744282 H 0.0 **** 0.06
14986 C 16.19486332713437 154.68044033464315 1.533512051911714 C 0.0 **** -0.24
14987 H 16.18503955822176 154.75082782073406 2.621789276049114 H 0.0 **** 0.06
14988 H 16.34514794298795 155.671764907954 1.1074436601484265 H 0.0 **** 0.06
14989 H 15.242907065693714 154.2764085722073 1.1877508312649496 H 0.0 **** 0.06
14990 H 17.005476484089854 154.02200075093623 1.2200047436702661 H 0.0 **** 0.06
14991 C 116.66930479532257 41.05234791363239 51.66284415267616 C 0.0 **** -0.24
14992 H 117.68542787220264 41.134507526811774 51.27697775491977 H 0.0 **** 0.06
14993 H 116.61326101022266 40.21913493403292 52.36340065398156 H 0.0 **** 0.06
14994 H 115.98007777371242 40.87997027999813 50.836493600441955 H 0.0 **** 0.06
14995 H 116.39965793483293 41.97697679109427 52.174839505845796 H 0.0 **** 0.06
14996 C 111.50636469652261 79.72727068296597 25.039159066718696 C 0.0 **** -0.24
14997 H 110.65219131626014 79.60685210807563 24.373815282066317 H 0.0 **** 0.06
14998 H 111.34913858242672 79.13672562232315 25.942528152721195 H 0.0 **** 0.06
14999 H 111.61409490314571 80.77866807221042 25.30623756650988 H 0.0 **** 0.06
15000 H 112.41082499304534 79.38696938583642 24.53465258315154 H 0.0 **** 0.06
15001 C 60.35198812430956 132.95069409504788 58.83315991215382 C 0.0 **** -0.24
15002 H 60.18497911963793 133.40548896735427 59.810223286389956 H 0.0 **** 0.06
15003 H 60.970043417374015 132.06066381857647 58.94819437001176 H 0.0 **** 0.06
15004 H 60.85889600881107 133.66471438311908 58.183063268348846 H 0.0 **** 0.06
15005 H 59.39466034963978 132.67467267463377 58.39214419135806 H 0.0 **** 0.06
15006 C 51.13977555448156 55.40782248771744 101.52437991901806 C 0.0 **** -0.24
15007 H 50.07179692233109 55.243676754022005 101.3825032409047 H 0.0 **** 0.06
15008 H 51.31806229197855 55.79201330287468 102.52993176224396 H 0.0 **** 0.06
15009 H 51.49669473638909 56.13154275020963 100.79135885870056 H 0.0 **** 0.06
15010 H 51.673218591753454 54.466113900145814 101.39554807701128 H 0.0 **** 0.06
15011 C 82.46473656660311 34.8368927698325 104.860610434936 C 0.0 **** -0.24
15012 H 81.64885096978124 34.48393526663153 104.22968184555032 H 0.0 **** 0.06
15013 H 82.59838840592303 34.15177071333653 105.6974934167917 H 0.0 **** 0.06
15014 H 82.22716640203853 35.83061155690257 105.2384497319868 H 0.0 **** 0.06
15015 H 83.38323796004221 34.88028778249418 104.27527698357522 H 0.0 **** 0.06
15016 C 6.522988507626337 69.80032002771581 49.073048484304294 C 0.0 **** -0.24
15017 H 5.839763581232546 68.97470708951272 48.8766582337545 H 0.0 **** 0.06
15018 H 6.141852688957272 70.70718536332664 48.602469092413685 H 0.0 **** 0.06
15019 H 7.505821057394087 69.56422030477754 48.6643538518359 H 0.0 **** 0.06
15020 H 6.6053021281956035 69.956328312043 50.14890074238998 H 0.0 **** 0.06
15021 C 43.99537911999171 142.16776298540705 20.759718811367662 C 0.0 **** -0.24
15022 H 44.357785352988785 141.36989908345498 20.111471865698377 H 0.0 **** 0.06
15023 H 44.81394740520041 142.8506667841143 20.987652039568275 H 0.0 **** 0.06
15024 H 43.613437265975904 141.73734782216962 21.68522050283491 H 0.0 **** 0.06
15025 H 43.19751182632152 142.7110113991718 20.25487518698924 H 0.0 **** 0.06
15026 C 139.84066253534814 164.82140480491898 51.953766908167765 C 0.0 **** -0.24
15027 H 139.20326059884275 163.97168955005674 52.19836033120039 H 0.0 **** 0.06
15028 H 140.86759305020647 164.47862920089315 51.82161612968342 H 0.0 **** 0.06
15029 H 139.8017147536917 165.54922973958614 52.763688568038376 H 0.0 **** 0.06
15030 H 139.49042418540964 165.2836468246087 51.03131551394377 H 0.0 **** 0.06
15031 C 162.276447709622 101.22689803788683 49.52955212500848 C 0.0 **** -0.24
15032 H 162.4825309234405 101.14802036727622 48.46269404031145 H 0.0 **** 0.06
15033 H 162.10757696970796 102.27259465465892 49.79011208706177 H 0.0 **** 0.06
15034 H 163.12717195981645 100.8444696777882 50.093220443654275 H 0.0 **** 0.06
15035 H 161.38746571280814 100.64430755555833 49.77136512354812 H 0.0 **** 0.06
15036 C 165.1776469612765 136.48002037966407 78.54107296784309 C 0.0 **** -0.24
15037 H 165.1748735065849 135.68447757995156 77.7969304371006 H 0.0 **** 0.06
15038 H 165.53787369221382 137.4026097772625 78.0842056628837 H 0.0 **** 0.06
15039 H 165.83208762080733 136.20365230432478 79.36754455514756 H 0.0 **** 0.06
15040 H 164.1643035313866 136.63067053145087 78.91415047707073 H 0.0 **** 0.06
15041 C 167.92154664676607 56.475144107080084 45.52406474746658 C 0.0 **** -0.24
15042 H 168.6986634037433 56.79400642786375 44.82933346478586 H 0.0 **** 0.06
15043 H 168.12251215691757 55.45481491501381 45.849611011519244 H 0.0 **** 0.06
15044 H 166.9519547327409 56.51384837494007 45.0264597675266 H 0.0 **** 0.06
15045 H 167.91286108370807 57.13911222098102 46.388981572999484 H 0.0 **** 0.06
15046 C 16.731155861132635 167.04121138262434 44.508765999059506 C 0.0 **** -0.24
15047 H 16.974153710864577 167.34799933029342 45.52618842418593 H 0.0 **** 0.06
15048 H 17.185493854146337 166.07119310440163 44.30395206719402 H 0.0 **** 0.06
15049 H 17.116422768326217 167.77804661449326 43.80445256237732 H 0.0 **** 0.06
15050 H 15.649424129007997 166.96611031092198 44.400417221579886 H 0.0 **** 0.06
15051 C 35.58732370223922 135.35081452692037 10.410849671699083 C 0.0 **** -0.24
15052 H 35.451369912488275 135.12418941389583 9.353217495885843 H 0.0 **** 0.06
15053 H 34.69043090384861 135.06579627070508 10.961396767814506 H 0.0 **** 0.06
15054 H 35.76393762815991 136.4196472601954 10.533455989454552 H 0.0 **** 0.06
15055 H 36.442407150654674 134.79408443688936 10.79464401353502 H 0.0 **** 0.06
15056 C 15.897696610759056 126.85298345003542 144.16447757039947 C 0.0 **** -0.24
15057 H 16.143537194720032 127.82687461648237 143.74008434048798 H 0.0 **** 0.06
15058 H 16.79610677374081 126.23626146364091 144.20284916792428 H 0.0 **** 0.06
15059 H 15.14688893907163 126.36500022427543 143.54243302582694 H 0.0 **** 0.06
15060 H 15.504509907974004 126.9851658498057 145.1727926171626 H 0.0 **** 0.06
15061 C 0.02703227859190349 164.0758506026305 9.842602726047154 C 0.0 **** -0.24
15062 H -0.9300523412546653 163.70064927346036 9.480730969916209 H 0.0 **** 0.06
15063 H 0.5489062833766525 164.583329220356 9.031074432744326 H 0.0 **** 0.06
15064 H 0.6322225738231353 163.24282385882367 10.199520533199909 H 0.0 **** 0.06
15065 H -0.14309767388694183 164.77727985112443 10.659802831345743 H 0.0 **** 0.06
15066 C 3.055859225528252 148.55375893382507 82.16144136965363 C 0.0 **** -0.24
15067 H 2.5756713588276625 148.5089344361513 83.1390934397788 H 0.0 **** 0.06
15068 H 4.110698410934987 148.79681198994916 82.28679954583582 H 0.0 **** 0.06
15069 H 2.575149927024597 149.32306412328884 81.55627915205919 H 0.0 **** 0.06
15070 H 2.960105719482698 147.58787325264254 81.6653261555516 H 0.0 **** 0.06
15071 C 150.77065375021328 148.6932772129369 74.09087969693107 C 0.0 **** -0.24
15072 H 150.74353261131205 149.63444601625594 74.63943041843146 H 0.0 **** 0.06
15073 H 150.23678699236604 147.9280765596239 74.65478167602669 H 0.0 **** 0.06
15074 H 151.80733015212502 148.38422364042992 73.95041203704895 H 0.0 **** 0.06
15075 H 150.29689199256086 148.82584096488898 73.1174749127685 H 0.0 **** 0.06
15076 C 138.91713495210215 6.726777856418636 128.7248623806959 C 0.0 **** -0.24
15077 H 138.99383686578454 6.484550707283262 127.66443226198012 H 0.0 **** 0.06
15078 H 139.83659425492334 7.209774301919595 129.0543744227095 H 0.0 **** 0.06
15079 H 138.76215437065025 5.811233067580929 129.29557942093652 H 0.0 **** 0.06
15080 H 138.0743169727864 7.400261298360874 128.88290704043342 H 0.0 **** 0.06
15081 C 116.62849536119282 18.918421921459668 120.06596096563729 C 0.0 **** -0.24
15082 H 116.53139804041638 17.905955572509214 119.67309049231685 H 0.0 **** 0.06
15083 H 116.95194279625895 18.873937534356116 121.10595283254864 H 0.0 **** 0.06
15084 H 115.6657974798344 19.425325451881037 120.00620510455047 H 0.0 **** 0.06
15085 H 117.36474631674079 19.46603564154779 119.47885800355346 H 0.0 **** 0.06
15086 C 76.52236909083639 2.799319519570993 24.832199467059638 C 0.0 **** -0.24
15087 H 77.4229167136279 2.93067098478636 24.23263300203442 H 0.0 **** 0.06
15088 H 76.76762728200379 2.2460766500678844 25.73982107610277 H 0.0 **** 0.06
15089 H 75.78062002322463 2.2455482296603932 24.257165687298652 H 0.0 **** 0.06
15090 H 76.11904667850753 3.775683122061224 25.1001627534919 H 0.0 **** 0.06
15091 C 91.81393834489143 42.02074323336333 16.925712086828526 C 0.0 **** -0.24
15092 H 91.62506693535198 42.84467973619377 17.614637659426762 H 0.0 **** 0.06
15093 H 92.54346249145766 41.34064460386162 17.364937025026506 H 0.0 **** 0.06
15094 H 92.2034514790218 42.41583620454429 15.986789681322307 H 0.0 **** 0.06
15095 H 90.88453387890672 41.48471415701954 16.736468010885858 H 0.0 **** 0.06
15096 C 104.022895307152 144.53781942313418 146.27670759589054 C 0.0 **** -0.24
15097 H 103.58706476463254 145.35722013423864 146.8478462680701 H 0.0 **** 0.06
15098 H 104.58301295484267 143.8858646204111 146.94735307097508 H 0.0 **** 0.06
15099 H 104.69318677737132 144.94006025178584 145.51723880814916 H 0.0 **** 0.06
15100 H 103.22848035419244 143.96765476753566 145.7952552829929 H 0.0 **** 0.06
15101 C 116.1667728868776 43.94921562855572 76.00826297314615 C 0.0 **** -0.24
15102 H 116.19676587122012 43.42165254705698 75.05518753740154 H 0.0 **** 0.06
15103 H 116.46295038578398 43.27057018145037 76.80841011138921 H 0.0 **** 0.06
15104 H 115.1555247600703 44.31097647006506 76.19301548685513 H 0.0 **** 0.06
15105 H 116.85471651119809 44.79453961141773 75.97657481348733 H 0.0 **** 0.06
15106 C 153.9687276532565 53.82341118670226 148.8490077995612 C 0.0 **** -0.24
15107 H 153.15973833245016 53.760321558778486 149.5762004418274 H 0.0 **** 0.06
15108 H 153.70855139751686 54.55188168638952 148.07959419488594 H 0.0 **** 0.06
15109 H 154.1208722846364 52.84701628256944 148.3894458604452 H 0.0 **** 0.06
15110 H 154.88434888514297 54.1361294177634 149.35042104014374 H 0.0 **** 0.06
15111 C 115.3849278437836 145.30883431695304 140.65208460930012 C 0.0 **** -0.24
15112 H 115.99396536701636 144.49947457439458 140.24893166169613 H 0.0 **** 0.06
15113 H 114.33020299127355 145.05897093969014 140.54189416991323 H 0.0 **** 0.06
15114 H 115.59949896084672 146.22979472467688 140.1097808625641 H 0.0 **** 0.06
15115 H 115.61831527595388 145.44669215211746 141.70855503044424 H 0.0 **** 0.06
15116 C 30.887213729422143 96.51237650993352 63.50007675809479 C 0.0 **** -0.24
15117 H 31.132338256311286 95.7095226147797 64.1952614600952 H 0.0 **** 0.06
15118 H 30.07376037178672 97.11115205796358 63.908763238919676 H 0.0 **** 0.06
15119 H 30.5800136291426 96.08443663932383 62.5453104107915 H 0.0 **** 0.06
15120 H 31.763806029849192 97.14308491667157 63.349504346226524 H 0.0 **** 0.06
15121 C 92.42098473881333 11.047349849254964 2.680588723541298 C 0.0 **** -0.24
15122 H 91.95978520787548 10.494374227349795 1.862641217196817 H 0.0 **** 0.06
15123 H 91.80579625469326 10.953601502369665 3.5756929472987053 H 0.0 **** 0.06
15124 H 92.50454073589731 12.099343220036225 2.405847831829824 H 0.0 **** 0.06
15125 H 93.41438926238843 10.643955884422923 2.8770981362567127 H 0.0 **** 0.06
15126 C 83.92418395878181 83.56783894778457 85.34477280716224 C 0.0 **** -0.24
15127 H 84.06408364490667 82.56218832697056 84.94950952179047 H 0.0 **** 0.06
15128 H 84.79823993825406 84.17595797629826 85.10641247775096 H 0.0 **** 0.06
15129 H 83.7999812228399 83.51909969891457 86.42612997480147 H 0.0 **** 0.06
15130 H 83.03723126395991 84.01489499486135 84.89579731393628 H 0.0 **** 0.06
15131 C 118.2841086696285 60.90953180095556 83.90365837273086 C 0.0 **** -0.24
15132 H 119.06959520460026 60.20203691415941 83.63728629379072 H 0.0 **** 0.06
15133 H 118.63111723503883 61.545748470717 84.71877961018754 H 0.0 **** 0.06
15134 H 117.39593607649627 60.36337004847934 84.22239335297591 H 0.0 **** 0.06
15135 H 118.04198059510233 61.52631190599291 83.03835352817067 H 0.0 **** 0.06
15136 C 86.42761281122797 120.03552158858542 144.61983604932598 C 0.0 **** -0.24
15137 H 86.87045884778479 121.02212707583467 144.48247450827662 H 0.0 **** 0.06
15138 H 86.97118409271513 119.30683683475709 144.01737525141021 H 0.0 **** 0.06
15139 H 85.3832925359937 120.05956905940101 144.3069269656796 H 0.0 **** 0.06
15140 H 86.48609386818026 119.75413139236352 145.67104045157237 H 0.0 **** 0.06
15141 C 4.6966219930541655 131.04027333776833 95.51714311710447 C 0.0 **** -0.24
15142 H 5.037113254269286 132.00183000891337 95.13243716964564 H 0.0 **** 0.06
15143 H 4.9845811227338 130.94646712522294 96.56473184782857 H 0.0 **** 0.06
15144 H 5.153895571743419 130.23606865670004 94.94103385641924 H 0.0 **** 0.06
15145 H 3.6123010375298463 130.97797869295735 95.43105247825636 H 0.0 **** 0.06
15146 C 92.82588978678655 113.20412041635223 98.05402684275288 C 0.0 **** -0.24
15147 H 93.0531168425471 114.22281206714374 98.37032165333176 H 0.0 **** 0.06
15148 H 93.3759582545693 112.97713491448354 97.14025199352801 H 0.0 **** 0.06
15149 H 91.75619114493387 113.11224189779495 97.86727480479789 H 0.0 **** 0.06
15150 H 93.11882918331835 112.50740242102648 98.83846593361903 H 0.0 **** 0.06
15151 C 140.56249381640464 99.24263411060255 49.92344189755545 C 0.0 **** -0.24
15152 H 139.51677791345537 99.49420147239917 49.75087522785566 H 0.0 **** 0.06
15153 H 140.6270529024315 98.45998671440267 50.68014091040634 H 0.0 **** 0.06
15154 H 141.0968970006017 100.12805598599795 50.2686788340465 H 0.0 **** 0.06
15155 H 141.0092474491299 98.88829226961073 48.99407261791306 H 0.0 **** 0.06
15156 C 79.71018159241575 92.62574485996464 145.97384997284922 C 0.0 **** -0.24
15157 H 80.77477897512071 92.75366713612215 145.7804217889972 H 0.0 **** 0.06
15158 H 79.50579684882872 92.81926652267978 147.02764856495014 H 0.0 **** 0.06
15159 H 79.41607493563046 91.60591630133021 145.72794523486994 H 0.0 **** 0.06
15160 H 79.14322650595504 93.3259391760977 145.35932001454242 H 0.0 **** 0.06
15161 C 1.6434094756450008 19.281349108049007 97.35817103003725 C 0.0 **** -0.24
15162 H 1.2475499601790148 18.274452082247528 97.2299221411186 H 0.0 **** 0.06
15163 H 0.9266173661439439 19.884576347859493 97.91590140544693 H 0.0 **** 0.06
15164 H 1.8153218895743635 19.731930000222903 96.38037187767284 H 0.0 **** 0.06
15165 H 2.5848641344329053 19.234737798365636 97.90711979376948 H 0.0 **** 0.06
15166 C 114.96895445662835 3.4897866713670282 80.12275112181271 C 0.0 **** -0.24
15167 H 115.10670806651763 4.560118245890976 80.2739378611218 H 0.0 **** 0.06
15168 H 115.82772394859683 3.0851620919377183 79.5876566642869 H 0.0 **** 0.06
15169 H 114.06423071728685 3.3187205768292642 79.54030155145796 H 0.0 **** 0.06
15170 H 114.87693981435726 2.995831073382078 81.09032663486136 H 0.0 **** 0.06
15171 C 111.12213950004528 172.67318576505443 112.41598033914508 C 0.0 **** -0.24
15172 H 110.50739494489508 171.89835554817307 112.87494054950656 H 0.0 **** 0.06
15173 H 112.1538703089399 172.32619918493583 112.35140431921874 H 0.0 **** 0.06
15174 H 111.07888037862645 173.57777912696073 113.0223289806988 H 0.0 **** 0.06
15175 H 110.74748196084374 172.88838140740685 111.41539763811159 H 0.0 **** 0.06
15176 C 121.6163393351913 142.02718724591927 22.319539855352104 C 0.0 **** -0.24
15177 H 120.59181674962684 142.3981902232339 22.35289335414751 H 0.0 **** 0.06
15178 H 121.6073420644205 140.9371438001861 22.323480137377203 H 0.0 **** 0.06
15179 H 122.16185307348263 142.38913605362575 23.19054328981167 H 0.0 **** 0.06
15180 H 122.10232381960151 142.38490644790107 21.41196328496801 H 0.0 **** 0.06
15181 C 79.78491456257964 77.66519362826278 121.60475077978532 C 0.0 **** -0.24
15182 H 78.78945334512726 78.0589479700864 121.39782401143137 H 0.0 **** 0.06
15183 H 79.73854314013414 76.57870399007659 121.66951269798395 H 0.0 **** 0.06
15184 H 80.14607657045667 78.07128143967735 122.54889687066765 H 0.0 **** 0.06
15185 H 80.46348465371756 77.95387406024065 120.80209492379004 H 0.0 **** 0.06
15186 C 79.46929043253326 112.45158085971116 123.10152802170822 C 0.0 **** -0.24
15187 H 79.7343721010459 112.9655658121273 124.02537344068605 H 0.0 **** 0.06
15188 H 79.15697586863055 111.43271651212132 123.32902575626528 H 0.0 **** 0.06
15189 H 80.33389905312765 112.42758336714678 122.4384207671124 H 0.0 **** 0.06
15190 H 78.65168505699762 112.98174426813921 122.61275158497881 H 0.0 **** 0.06
15191 C 160.95727084707988 148.11432561575128 157.51544747239205 C 0.0 **** -0.24
15192 H 161.12594822604905 147.44952269789786 156.6685046190816 H 0.0 **** 0.06
15193 H 161.6369762872052 148.9644900567825 157.45118126492866 H 0.0 **** 0.06
15194 H 161.13867962744547 147.57260442837293 158.44432648758624 H 0.0 **** 0.06
15195 H 159.92717997165846 148.47031587274245 157.4986572907516 H 0.0 **** 0.06
15196 C 71.17434106764665 75.4415926359157 55.12452158030493 C 0.0 **** -0.24
15197 H 72.00291869035811 76.02571777638184 55.52521489682215 H 0.0 **** 0.06
15198 H 70.8355394284612 74.72799422313426 55.87592956144654 H 0.0 **** 0.06
15199 H 71.5074815234604 74.90363498856789 54.23588146973343 H 0.0 **** 0.06
15200 H 70.35397860085686 76.1080483452883 54.85893283022543 H 0.0 **** 0.06
15201 C 151.79911914022264 46.22789256391465 141.09984771964048 C 0.0 **** -0.24
15202 H 151.3383604127744 45.71186157951871 141.94254316910735 H 0.0 **** 0.06
15203 H 151.60618114479925 45.6701019659759 140.18389862613952 H 0.0 **** 0.06
15204 H 152.87424447772574 46.29915146486567 141.2629637767796 H 0.0 **** 0.06
15205 H 151.3774624645057 47.22904192423482 141.01242471940918 H 0.0 **** 0.06
15206 C 72.64477718136422 73.75777035718174 5.138001647175081 C 0.0 **** -0.24
15207 H 72.41240918788304 74.06180351511155 6.159624961591916 H 0.0 **** 0.06
15208 H 71.78659472821656 73.23732713452924 4.711310950704579 H 0.0 **** 0.06
15209 H 73.508066814996 73.09206775246267 5.145434426911663 H 0.0 **** 0.06
15210 H 72.87063031011121 74.64007615622896 4.53950685678943 H 0.0 **** 0.06
15211 C 46.23118935868669 81.57555278866843 108.28238030714178 C 0.0 **** -0.24
15212 H 46.913598156967026 81.11504282596789 107.56765238349539 H 0.0 **** 0.06
15213 H 46.6686994757338 81.53514683662745 109.28047222333888 H 0.0 **** 0.06
15214 H 45.28409076615654 81.03705499661548 108.27870091815919 H 0.0 **** 0.06
15215 H 46.06008272037542 82.61474839133828 108.00282140110227 H 0.0 **** 0.06
15216 C 67.6644528363102 37.98570112066403 73.49162689743264 C 0.0 **** -0.24
15217 H 68.73925655580194 37.805266815935 73.50309883537645 H 0.0 **** 0.06
15218 H 67.21498363101534 37.44676742456858 72.65602282704438 H 0.0 **** 0.06
15219 H 67.47642824186624 39.05360092494399 73.37719365912444 H 0.0 **** 0.06
15220 H 67.22720310678449 37.63705731875234 74.42645271947879 H 0.0 **** 0.06
15221 C 125.7597145988284 24.062459968357814 154.35290997532113 C 0.0 **** -0.24
15222 H 125.0405600179275 24.479464089502926 153.64790044555383 H 0.0 **** 0.06
15223 H 126.76663017240449 24.366634019355445 154.06810242094127 H 0.0 **** 0.06
15224 H 125.69057289493111 22.97499663137674 154.34204337506583 H 0.0 **** 0.06
15225 H 125.53896761910738 24.430318917699566 155.35559276973498 H 0.0 **** 0.06
15226 C 124.96391353583681 116.48480515722241 155.0914890512173 C 0.0 **** -0.24
15227 H 124.60747670740022 115.7700339018647 154.3491669852792 H 0.0 **** 0.06
15228 H 126.02387651112952 116.3150479624224 155.2803704118709 H 0.0 **** 0.06
15229 H 124.40341385116508 116.35519044863275 156.01818606815425 H 0.0 **** 0.06
15230 H 124.81758673842313 117.49803910835502 154.71770220768786 H 0.0 **** 0.06
15231 C 39.03450692296528 97.92551644786315 37.13284227066853 C 0.0 **** -0.24
15232 H 38.58028427469195 97.4674914065771 38.01197710501923 H 0.0 **** 0.06
15233 H 40.11111248047466 98.0130864604204 37.28526013011792 H 0.0 **** 0.06
15234 H 38.60743800965531 98.91577247707619 36.97752550590434 H 0.0 **** 0.06
15235 H 38.840800227544264 97.30365254696545 36.25887820477841 H 0.0 **** 0.06
15236 C 144.6644875547616 166.40700603555862 135.89993192041308 C 0.0 **** -0.24
15237 H 145.65868306907325 166.20149075357688 136.2962435687993 H 0.0 **** 0.06
15238 H 144.06250716264128 165.49909973267538 135.9390463748614 H 0.0 **** 0.06
15239 H 144.74868604625678 166.7449502799043 134.8667700241026 H 0.0 **** 0.06
15240 H 144.18990974260223 167.18562194762976 136.49855065919564 H 0.0 **** 0.06
15241 C 116.87184173814018 91.71974418496444 46.0027258712621 C 0.0 **** -0.24
15242 H 117.28004280430164 90.76234092286285 45.67855604721929 H 0.0 **** 0.06
15243 H 115.87431495843842 91.56883240736731 46.41364934928016 H 0.0 **** 0.06
15244 H 116.81504043679865 92.39712663726243 45.15088386743179 H 0.0 **** 0.06
15245 H 117.51964548000251 92.15023066521573 46.76681939109598 H 0.0 **** 0.06
15246 C 147.59197119126205 7.930156956376663 7.153535269893098 C 0.0 **** -0.24
15247 H 147.6813339579245 6.871833958230468 6.907899523258607 H 0.0 **** 0.06
15248 H 147.0058053374662 8.43347142263741 6.384055997670657 H 0.0 **** 0.06
15249 H 148.58514506641262 8.377025814551814 7.203586003952125 H 0.0 **** 0.06
15250 H 147.09505988691933 8.038663008385527 8.117842166431103 H 0.0 **** 0.06
15251 C 130.6825723627009 6.890456889353231 106.44086024725118 C 0.0 **** -0.24
15252 H 130.51659765034907 6.102420281583534 105.70605286055041 H 0.0 **** 0.06
15253 H 131.55045590600088 6.640469235156672 107.050908201645 H 0.0 **** 0.06
15254 H 129.80378387252904 6.982412090077304 107.07880789748461 H 0.0 **** 0.06
15255 H 130.8588724782592 7.835020332501642 105.92582882263906 H 0.0 **** 0.06
15256 C 43.766683811696566 139.74440203316436 120.8260372656452 C 0.0 **** -0.24
15257 H 44.111166128547666 140.29851069950357 119.95298875660637 H 0.0 **** 0.06
15258 H 42.89993261665154 139.14067042324325 120.55425474902387 H 0.0 **** 0.06
15259 H 43.489707760636406 140.44455315651828 121.61443619241527 H 0.0 **** 0.06
15260 H 44.565082761365716 139.09389218871118 121.18193643837748 H 0.0 **** 0.06
15261 C 170.7468086719581 115.2262175223261 115.30285014906411 C 0.0 **** -0.24
15262 H 170.59422580447563 115.92629235802934 116.12449233918733 H 0.0 **** 0.06
15263 H 171.7575028968619 114.81964853776407 115.35593566423876 H 0.0 **** 0.06
15264 H 170.61282803576256 115.74616567965776 114.35357341137345 H 0.0 **** 0.06
15265 H 170.02341969268693 114.41474405621287 115.37812541178823 H 0.0 **** 0.06
15266 C 78.65354145237967 94.93176907376488 124.35374517552853 C 0.0 **** -0.24
15267 H 78.7829577357054 93.9539023396739 124.81613702666434 H 0.0 **** 0.06
15268 H 79.56991724898074 95.21020767308579 123.83196881489738 H 0.0 **** 0.06
15269 H 78.43397326780769 95.67138734108397 125.12331700373954 H 0.0 **** 0.06
15270 H 77.82895904594943 94.89094870421496 123.64260474235999 H 0.0 **** 0.06
15271 C 22.249706704029876 158.96912656181064 14.676265438624895 C 0.0 **** -0.24
15272 H 21.239848832649784 158.6641955631565 14.400502186316835 H 0.0 **** 0.06
15273 H 22.29208746790391 160.05635110613642 14.752736941437533 H 0.0 **** 0.06
15274 H 22.951909352801664 158.63088215403957 13.914160228521894 H 0.0 **** 0.06
15275 H 22.513260673126297 158.52664261271354 15.636894109861714 H 0.0 **** 0.06
15276 C 114.12352422520809 72.06893081551681 118.81024709766092 C 0.0 **** -0.24
15277 H 113.25007109416595 71.4226619421922 118.72179731092302 H 0.0 **** 0.06
15278 H 114.51207469627502 72.29132493675698 117.81509502613181 H 0.0 **** 0.06
15279 H 114.8911084589792 71.56448738412598 119.39610836069681 H 0.0 **** 0.06
15280 H 113.84035096954182 72.99709933613991 119.30559269444524 H 0.0 **** 0.06
15281 C 59.0884082504258 148.20687847470566 164.87145894198045 C 0.0 **** -0.24
15282 H 58.000377377018 148.15744973306832 164.84555971137536 H 0.0 **** 0.06
15283 H 59.4019516259594 149.23586773700998 165.04963261089682 H 0.0 **** 0.06
15284 H 59.490482006252606 147.86351035010168 163.918251088052 H 0.0 **** 0.06
15285 H 59.460710759949336 147.568814147871 165.67361040610683 H 0.0 **** 0.06
15286 C 64.52560623297946 3.664968751016204 31.012506372254393 C 0.0 **** -0.24
15287 H 64.17129945654148 2.6568529171977673 30.796438396031988 H 0.0 **** 0.06
15288 H 63.69215022636682 4.364295386377393 30.950469997058747 H 0.0 **** 0.06
15289 H 65.29084258312785 3.944413158827956 30.28737026409442 H 0.0 **** 0.06
15290 H 64.95022096328948 3.693004440040454 32.0171344522189 H 0.0 **** 0.06
15291 C 136.4549462695665 105.69921061536007 157.26110520998628 C 0.0 **** -0.24
15292 H 136.8009647695501 106.66894812217049 156.90446038865548 H 0.0 **** 0.06
15293 H 135.9758870887289 105.16075823792036 156.44303153393741 H 0.0 **** 0.06
15294 H 135.7389919439953 105.8442283961831 158.07028222395775 H 0.0 **** 0.06
15295 H 137.3054993589406 105.12296102153525 157.62789954877974 H 0.0 **** 0.06
15296 C 65.28292202753383 4.588166208677016 153.8088138899764 C 0.0 **** -0.24
15297 H 65.87202341601068 4.9975355609874015 152.98790556135395 H 0.0 **** 0.06
15298 H 64.31754635465308 5.092758248572061 153.84904908264573 H 0.0 **** 0.06
15299 H 65.81392038877095 4.74198371775573 154.74810888808113 H 0.0 **** 0.06
15300 H 65.13049837420633 3.521509874393388 153.64833510177806 H 0.0 **** 0.06
15301 C 22.25392395302066 44.856308061115044 139.0291264708821 C 0.0 **** -0.24
15302 H 21.619072113548157 43.97204021566807 139.0815639923321 H 0.0 **** 0.06
15303 H 22.332290910342977 45.18481930927271 137.99170744936245 H 0.0 **** 0.06
15304 H 23.245333660758092 44.61482540421156 139.4103967951263 H 0.0 **** 0.06
15305 H 21.817053767328957 45.65372308939152 139.63015716451469 H 0.0 **** 0.06
15306 C 72.91237401161725 21.942291440973918 122.16669282376358 C 0.0 **** -0.24
15307 H 73.97782926259875 21.808270042873687 121.97933871418778 H 0.0 **** 0.06
15308 H 72.34290313957729 21.279302865183155 121.51534325600528 H 0.0 **** 0.06
15309 H 72.6352293848039 22.976537364801032 121.96568193917031 H 0.0 **** 0.06
15310 H 72.69434849925905 21.70360161434033 123.20789849125575 H 0.0 **** 0.06
15311 C 140.5815728486298 13.738767882263893 48.53198370939113 C 0.0 **** -0.24
15312 H 141.06615274402046 13.553094987618636 49.49058012545839 H 0.0 **** 0.06
15313 H 141.2856665904793 14.227183847874237 47.85768625528037 H 0.0 **** 0.06
15314 H 139.71474742946606 14.38202798935076 48.68112891754659 H 0.0 **** 0.06
15315 H 140.2601846310984 12.791897515113675 48.09834872392794 H 0.0 **** 0.06
15316 C 68.91930901992217 35.37601790808861 70.25149447936464 C 0.0 **** -0.24
15317 H 68.86013359928478 36.449076147363854 70.43514492438077 H 0.0 **** 0.06
15318 H 67.91494333342142 34.95151151907568 70.25117458693198 H 0.0 **** 0.06
15319 H 69.51307993327424 34.906215742958636 71.03608114386448 H 0.0 **** 0.06
15320 H 69.38975372168832 35.19755604630227 69.2847864986393 H 0.0 **** 0.06
15321 C 115.16712761482287 171.47119842514877 114.10238822253967 C 0.0 **** -0.24
15322 H 115.88449509572726 170.6551640633223 114.19337735574842 H 0.0 **** 0.06
15323 H 115.63260172468463 172.30708769607583 113.5802415359181 H 0.0 **** 0.06
15324 H 114.85524158387 171.79186091428974 115.09625936634058 H 0.0 **** 0.06
15325 H 114.29757067138345 171.1297252831993 113.54113427795247 H 0.0 **** 0.06
15326 C 165.8689226815847 159.8669583190081 53.04040705198558 C 0.0 **** -0.24
15327 H 166.11979709706193 160.6858950757624 52.36651849260491 H 0.0 **** 0.06
15328 H 164.80927707444027 159.91570033481253 53.29260262771176 H 0.0 **** 0.06
15329 H 166.46368273306754 159.9514462608081 53.95058038005436 H 0.0 **** 0.06
15330 H 166.08443734593587 158.9164895574496 52.552852201472035 H 0.0 **** 0.06
15331 C 26.55640472708515 74.1217740961742 95.14902712221226 C 0.0 **** -0.24
15332 H 26.46535067286461 73.70120158122548 94.14755565266924 H 0.0 **** 0.06
15333 H 27.04907732357931 73.40188802993941 95.80227740964443 H 0.0 **** 0.06
15334 H 25.56383124642307 74.34739803974014 95.538697370459 H 0.0 **** 0.06
15335 H 27.146402309831387 75.0378107476255 95.1067788585328 H 0.0 **** 0.06
15336 C 128.11371613629782 68.52277210457702 42.015333380067034 C 0.0 **** -0.24
15337 H 128.64053524186065 67.61133739743221 42.29740709680749 H 0.0 **** 0.06
15338 H 128.77938069945841 69.37829749057637 42.133655881214736 H 0.0 **** 0.06
15339 H 127.24044397552899 68.64979371130636 42.655220426529326 H 0.0 **** 0.06
15340 H 127.79450462834302 68.45165981899301 40.975050115716385 H 0.0 **** 0.06
15341 C 125.01513437013656 50.17881405956348 26.95848834739764 C 0.0 **** -0.24
15342 H 124.9225968272832 49.094597427719236 26.888786790691405 H 0.0 **** 0.06
15343 H 124.64831142075829 50.513340611810236 27.92899342286323 H 0.0 **** 0.06
15344 H 124.42782724906834 50.64528430695145 26.16751929594073 H 0.0 **** 0.06
15345 H 126.06233597648313 50.46166992776142 26.849417037717203 H 0.0 **** 0.06
15346 C 60.48001894378511 147.7961397632631 11.487770721903445 C 0.0 **** -0.24
15347 H 59.814183799231415 148.17193072949948 10.710987682275814 H 0.0 **** 0.06
15348 H 61.471912640760394 148.22851421107333 11.356509860331315 H 0.0 **** 0.06
15349 H 60.54407921588397 146.71015595623928 11.41662545309434 H 0.0 **** 0.06
15350 H 60.08827434695752 148.07243160848654 12.467123158625412 H 0.0 **** 0.06
15351 C 40.71807639402056 7.446110412312294 114.10380069803296 C 0.0 **** -0.24
15352 H 41.436303495729206 7.696941402962011 113.32323178488639 H 0.0 **** 0.06
15353 H 40.593196305616274 6.363626144215971 114.1480724957296 H 0.0 **** 0.06
15354 H 39.76009389849081 7.914204046409054 113.87988767558903 H 0.0 **** 0.06
15355 H 41.084903113641815 7.809225044792129 115.0639866768804 H 0.0 **** 0.06
15356 C 151.83096306956406 125.74915807275255 88.51318403494122 C 0.0 **** -0.24
15357 H 152.08843468253838 125.7315547353081 89.57272011606611 H 0.0 **** 0.06
15358 H 152.48252525156786 125.06390627191269 87.97078484341459 H 0.0 **** 0.06
15359 H 151.96100354140574 126.75932377311742 88.12473336583855 H 0.0 **** 0.06
15360 H 150.79349600047723 125.44107029990118 88.38710801332408 H 0.0 **** 0.06
15361 C 117.39784180858351 60.70225449361075 136.74279221335698 C 0.0 **** -0.24
15362 H 116.86606327418724 59.756401309014805 136.85007013197352 H 0.0 **** 0.06
15363 H 118.37292372467095 60.520250145034936 136.28917794661268 H 0.0 **** 0.06
15364 H 117.53259269825142 61.15604371290473 137.72482619319646 H 0.0 **** 0.06
15365 H 116.82009588191372 61.373548458221364 136.10819374545653 H 0.0 **** 0.06
15366 C 0.9174327564090561 50.723169076216465 82.04362426481138 C 0.0 **** -0.24
15367 H 0.3928314954307268 51.108051545593526 81.16938907133289 H 0.0 **** 0.06
15368 H 0.2797684613249487 50.82270393709757 82.92285079081861 H 0.0 **** 0.06
15369 H 1.8366305352827794 51.28941698334398 82.19397697617023 H 0.0 **** 0.06
15370 H 1.1603115475121797 49.67177371521137 81.88708386829042 H 0.0 **** 0.06
15371 C 113.08577911891359 73.78983694002392 111.8604184907021 C 0.0 **** -0.24
15372 H 112.31011431575257 73.02467399178087 111.85503941610841 H 0.0 **** 0.06
15373 H 113.91334836805612 73.47309023463507 111.2262144002928 H 0.0 **** 0.06
15374 H 113.44385369165343 73.93667192244521 112.88002101553155 H 0.0 **** 0.06
15375 H 112.67480712130921 74.72580235365189 111.48219376469439 H 0.0 **** 0.06
15376 C 26.68335099526086 104.51926495831233 125.18036847111989 C 0.0 **** -0.24
15377 H 25.719110662387678 104.34611373742757 124.70151103250524 H 0.0 **** 0.06
15378 H 26.710652734254644 105.53066996308186 125.58763712559065 H 0.0 **** 0.06
15379 H 27.479024566260627 104.40155213742932 124.44558318915858 H 0.0 **** 0.06
15380 H 26.822232189046197 103.79906145178504 125.98719381271434 H 0.0 **** 0.06
15381 C 93.07432212369719 145.35257187376777 22.2917000072502 C 0.0 **** -0.24
15382 H 92.76304005967881 144.7692252767355 23.157441521874745 H 0.0 **** 0.06
15383 H 92.69138621880177 144.8876406481116 21.382781828109387 H 0.0 **** 0.06
15384 H 94.16350832768691 145.3885904638893 22.249756056625017 H 0.0 **** 0.06
15385 H 92.68024955723823 146.36560678590945 22.374924247274578 H 0.0 **** 0.06
15386 C 76.29963085919249 4.46014162598734 53.580074863776574 C 0.0 **** -0.24
15387 H 76.07371093919633 4.349883851388618 52.51921596066438 H 0.0 **** 0.06
15388 H 77.15331964469077 5.127964326295022 53.701925287867255 H 0.0 **** 0.06
15389 H 76.53829105067052 3.4846564865072054 54.00415651663674 H 0.0 **** 0.06
15390 H 75.43461139782896 4.878750414938331 54.0934082521201 H 0.0 **** 0.06
15391 C 66.38298395747285 156.68724776789185 20.898886187835615 C 0.0 **** -0.24
15392 H 66.26914839741926 157.51251978825715 21.602033933598932 H 0.0 **** 0.06
15393 H 67.18000511736801 156.91956797752428 20.193417023117945 H 0.0 **** 0.06
15394 H 65.44814566079316 156.53914536091037 20.357907230155092 H 0.0 **** 0.06
15395 H 66.633472462069 155.77803568075905 21.444937522592795 H 0.0 **** 0.06
15396 C 55.950482458640295 118.39996843617601 75.00579642589194 C 0.0 **** -0.24
15397 H 56.056059508004125 118.82174450654455 76.0061456968344 H 0.0 **** 0.06
15398 H 56.86797597675269 117.87770067796191 74.73373718391296 H 0.0 **** 0.06
15399 H 55.76176857830808 119.20056501129218 74.29140623327649 H 0.0 **** 0.06
15400 H 55.11611946346778 117.69788369599809 74.99415056249443 H 0.0 **** 0.06
15401 C 126.62678639186933 126.16418417577785 66.20928824778753 C 0.0 **** -0.24
15402 H 126.34631313130589 125.54087423848421 67.05801826435231 H 0.0 **** 0.06
15403 H 126.64144678929279 127.21021153891155 66.5157013973452 H 0.0 **** 0.06
15404 H 125.90260589000317 126.03075707644905 65.40511288243295 H 0.0 **** 0.06
15405 H 127.61626697905615 125.87470466235186 65.85748301335025 H 0.0 **** 0.06
15406 C 93.70718882844386 10.440758205808038 67.02684923234904 C 0.0 **** -0.24
15407 H 93.10416313751028 11.25391830538171 67.43074259781594 H 0.0 **** 0.06
15408 H 94.76360556317519 10.66576187006902 67.17224252559222 H 0.0 **** 0.06
15409 H 93.50116206505044 10.33105579144835 65.96232608719009 H 0.0 **** 0.06
15410 H 93.45826572144989 9.513340236884197 67.54330291079128 H 0.0 **** 0.06
15411 C 27.386112104366504 123.13843959744304 119.58676279662822 C 0.0 **** -0.24
15412 H 27.364779146105327 123.86454673191031 118.77370465769974 H 0.0 **** 0.06
15413 H 28.24811636914984 122.48319707122539 119.4660564067591 H 0.0 **** 0.06
15414 H 26.471753484262038 122.54487649467325 119.56604176089513 H 0.0 **** 0.06
15415 H 27.45792185540018 123.66281859032935 120.5396201917871 H 0.0 **** 0.06
15416 C 146.1828238883743 20.50490384082468 71.93515752815615 C 0.0 **** -0.24
15417 H 147.2595621786778 20.37128075985231 72.03903586513809 H 0.0 **** 0.06
15418 H 145.97983532828022 21.191074954203515 71.11308817272919 H 0.0 **** 0.06
15419 H 145.77644775225428 20.914332188276717 72.86058395938203 H 0.0 **** 0.06
15420 H 145.7164893691562 19.541013614807383 71.72904358043623 H 0.0 **** 0.06
15421 C 10.52739702581647 122.67107954540216 143.59921977722172 C 0.0 **** -0.24
15422 H 10.435541140930667 123.74676206919884 143.44597221632014 H 0.0 **** 0.06
15423 H 11.229288900451195 122.47907267895846 144.41161585290558 H 0.0 **** 0.06
15424 H 10.893404090728382 122.20438914082382 142.68561590622474 H 0.0 **** 0.06
15425 H 9.552471185752722 122.25593375740544 143.8542820440848 H 0.0 **** 0.06
15426 C 85.38396896187007 71.73515640142409 152.93634339448982 C 0.0 **** -0.24
15427 H 86.44026769152745 71.48545169292083 153.03300631104656 H 0.0 **** 0.06
15428 H 85.19220585103814 72.69615124702324 153.4149654126711 H 0.0 **** 0.06
15429 H 84.78286612063857 70.96306921606617 153.41607553127727 H 0.0 **** 0.06
15430 H 85.12042640416918 71.79644910059085 151.88046475088902 H 0.0 **** 0.06
15431 C 32.6296112288519 102.40520817235154 107.90042675109763 C 0.0 **** -0.24
15432 H 31.606404688918843 102.51682722104229 107.53974435795644 H 0.0 **** 0.06
15433 H 32.725782413316054 102.88631388087629 108.87392487339505 H 0.0 **** 0.06
15434 H 33.31630585612696 102.87057463850545 107.19400853272663 H 0.0 **** 0.06
15435 H 32.86769001436855 101.34545246153351 107.99369260948671 H 0.0 **** 0.06
15436 C 99.39517529106101 44.437498007233614 13.323449264556103 C 0.0 **** -0.24
15437 H 99.40040230629813 44.29673521938564 12.241969843473896 H 0.0 **** 0.06
15438 H 99.60007650426641 45.48258104409665 13.554533901436088 H 0.0 **** 0.06
15439 H 100.16282210543983 43.80779442582893 13.774144256973614 H 0.0 **** 0.06
15440 H 98.41839904135009 44.160767169866816 13.720404413981981 H 0.0 **** 0.06
15441 C 17.92093997276485 120.62971044224099 137.19723365962946 C 0.0 **** -0.24
15442 H 18.00799119439624 120.85373708163593 136.13367672298472 H 0.0 **** 0.06
15443 H 17.71435995676937 121.54845738370372 137.74646125224757 H 0.0 **** 0.06
15444 H 18.85544100803989 120.195324971561 137.55253531497982 H 0.0 **** 0.06
15445 H 17.10828689510147 119.92077013923296 137.35355636623098 H 0.0 **** 0.06
15446 C 4.738409020718635 59.59825226099653 43.74664017847489 C 0.0 **** -0.24
15447 H 4.902631086063721 58.88435282620631 44.552480011524466 H 0.0 **** 0.06
15448 H 4.895796507665672 59.10638357182506 42.786801361998556 H 0.0 **** 0.06
15449 H 5.437782261332366 60.428773079815414 43.84861300771584 H 0.0 **** 0.06
15450 H 3.7169980221305536 59.975904374492245 43.79848274543059 H 0.0 **** 0.06
15451 C 82.84115481444607 26.736826522410183 157.933999988201 C 0.0 **** -0.24
15452 H 83.06451407159585 26.327541250355864 156.94894598811567 H 0.0 **** 0.06
15453 H 81.76220767454947 26.738266212077463 158.0896990220022 H 0.0 **** 0.06
15454 H 83.21842632224372 27.757529783786595 157.99838362394385 H 0.0 **** 0.06
15455 H 83.3181244559633 26.123663890922757 158.69866575548963 H 0.0 **** 0.06
15456 C 89.4801281603826 5.042123911936358 140.17699741141013 C 0.0 **** -0.24
15457 H 88.83921937993432 5.089982806680808 139.29706410428932 H 0.0 **** 0.06
15458 H 90.51313496654785 4.8833298656664965 139.8648762490508 H 0.0 **** 0.06
15459 H 89.16132902254549 4.215815681166674 140.813388831118 H 0.0 **** 0.06
15460 H 89.40689304468378 5.977439339137334 140.731529504984 H 0.0 **** 0.06
15461 C 157.33584847398566 142.50301693450785 77.80056728734174 C 0.0 **** -0.24
15462 H 157.00640956979476 143.54098100147698 77.75585953187995 H 0.0 **** 0.06
15463 H 156.71653065049918 141.89676063396058 77.14008193902528 H 0.0 **** 0.06
15464 H 157.24503620770105 142.13692755245756 78.82308617400369 H 0.0 **** 0.06
15465 H 158.37722323871859 142.43823010295904 77.48302281848908 H 0.0 **** 0.06
15466 C 27.087251602471326 27.473935044102838 119.01918245418943 C 0.0 **** -0.24
15467 H 26.378030117282 27.5088561491075 118.19290432050587 H 0.0 **** 0.06
15468 H 26.54514667826188 27.474314017288393 119.96451640400397 H 0.0 **** 0.06
15469 H 27.740566241823274 28.34577768583057 118.97396520703404 H 0.0 **** 0.06
15470 H 27.687043042158564 26.566404285528982 118.94404683408499 H 0.0 **** 0.06
15471 C 1.7193716688982477 122.18827163769842 162.6182649150547 C 0.0 **** -0.24
15472 H 1.3366242901132068 122.60571480416831 163.54931207705712 H 0.0 **** 0.06
15473 H 1.2203352146960071 121.24129293271702 162.41284551009562 H 0.0 **** 0.06
15474 H 2.792847045349106 122.02229514950997 162.70953161228732 H 0.0 **** 0.06
15475 H 1.5276408074912808 122.88545447988028 161.80182533825734 H 0.0 **** 0.06
15476 C 115.55193727409494 132.41934477669398 75.47542052231495 C 0.0 **** -0.24
15477 H 116.61782164536206 132.5186238137913 75.2693395329121 H 0.0 **** 0.06
15478 H 115.40100586570782 132.27231748812943 76.54499468025007 H 0.0 **** 0.06
15479 H 115.15523300059888 131.56351645244453 74.93060243977713 H 0.0 **** 0.06
15480 H 115.03470675937618 133.32431114144254 75.15656685694472 H 0.0 **** 0.06
15481 C 101.23045994932204 118.21113583717687 156.15642057742718 C 0.0 **** -0.24
15482 H 101.4634839088265 117.15036139412106 156.0665896997726 H 0.0 **** 0.06
15483 H 101.70662550634893 118.75837022914473 155.34228846718878 H 0.0 **** 0.06
15484 H 101.60190639796113 118.58538989325271 157.1109459316126 H 0.0 **** 0.06
15485 H 100.15092231354666 118.35150415253432 156.10664709579427 H 0.0 **** 0.06
15486 C 135.869444379231 126.05549938824333 156.17603483077156 C 0.0 **** -0.24
15487 H 136.89388465085736 125.68697280779188 156.12139529185174 H 0.0 **** 0.06
15488 H 135.34923805144857 125.56071949711932 156.99583078325398 H 0.0 **** 0.06
15489 H 135.3567414863159 125.84328093192016 155.23753322090886 H 0.0 **** 0.06
15490 H 135.87999105098007 127.13170735555201 156.34827698889038 H 0.0 **** 0.06
15491 C 53.574101217068986 19.981826378172457 144.39962618524933 C 0.0 **** -0.24
15492 H 54.45927522160166 20.604127221901024 144.52943686953995 H 0.0 **** 0.06
15493 H 53.137022531198525 20.172443794834578 143.4194392597772 H 0.0 **** 0.06
15494 H 52.84510105654924 20.219485505088386 145.17446558529855 H 0.0 **** 0.06
15495 H 53.8546095842933 18.93087057039216 144.4743265852648 H 0.0 **** 0.06
15496 C 131.58109790623973 113.30804140712289 41.92807630732298 C 0.0 **** -0.24
15497 H 132.12134757586875 113.24226277063107 42.871626838700905 H 0.0 **** 0.06
15498 H 131.61006876428448 114.3354228554081 41.56335412587066 H 0.0 **** 0.06
15499 H 130.54485733592114 113.00571497094336 42.08117564210579 H 0.0 **** 0.06
15500 H 132.0467714543529 112.64897915621938 41.19577291135755 H 0.0 **** 0.06
15501 C 96.76239190801635 115.96063046258053 12.228090096663152 C 0.0 **** -0.24
15502 H 96.60369870496513 114.9491241493896 11.853831310582734 H 0.0 **** 0.06
15503 H 97.32856000934808 116.53428895836336 11.494052082826272 H 0.0 **** 0.06
15504 H 97.31734016386591 115.91790235062678 13.165052163829387 H 0.0 **** 0.06
15505 H 95.79751823118696 116.43983707528929 12.39836645245316 H 0.0 **** 0.06
15506 C 53.48131505949138 18.290071116072212 59.87589227807811 C 0.0 **** -0.24
15507 H 52.89743012717676 18.561943348759755 60.75574401803448 H 0.0 **** 0.06
15508 H 53.00877206460231 17.447280245198037 59.3723092904178 H 0.0 **** 0.06
15509 H 54.49000050583007 18.013277379682847 60.18162756719761 H 0.0 **** 0.06
15510 H 53.5286898357554 19.141448668005722 59.19574073311509 H 0.0 **** 0.06
15511 C 77.674690858813 106.79437146166862 163.2526560816897 C 0.0 **** -0.24
15512 H 78.16496521346107 106.73132835424244 164.22404210387566 H 0.0 **** 0.06
15513 H 78.40339314789321 107.08578162320376 162.49574307653037 H 0.0 **** 0.06
15514 H 76.87773851747977 107.53726776219798 163.294801744835 H 0.0 **** 0.06
15515 H 77.25210605575933 105.82305311257062 162.99521105863911 H 0.0 **** 0.06
15516 C 50.21216932227411 45.5585365600497 114.43278104035744 C 0.0 **** -0.24
15517 H 51.230693588647455 45.229747008695796 114.22334615836945 H 0.0 **** 0.06
15518 H 49.781872121186396 44.93040112559149 115.21369807815199 H 0.0 **** 0.06
15519 H 49.611738053967585 45.475905000389815 113.52699878528773 H 0.0 **** 0.06
15520 H 50.22700171281511 46.59558111363687 114.76619631298473 H 0.0 **** 0.06
15521 C 42.344428437194324 129.22329748654758 33.45791327805301 C 0.0 **** -0.24
15522 H 42.16904983028911 129.8079246640599 32.55449332606054 H 0.0 **** 0.06
15523 H 41.53403580926488 128.50729835018416 33.589409174077446 H 0.0 **** 0.06
15524 H 42.38426812305556 129.89026088758504 34.318935808140566 H 0.0 **** 0.06
15525 H 43.2901600763297 128.69038715985164 33.36687264970874 H 0.0 **** 0.06
15526 C 114.46174514080889 101.76108689573203 108.13542859745428 C 0.0 **** -0.24
15527 H 115.13834045693179 102.41049701683971 107.57960266451369 H 0.0 **** 0.06
15528 H 113.75222215991957 101.302541829013 107.44685925574407 H 0.0 **** 0.06
15529 H 113.92068245037902 102.34979717354688 108.87659765672223 H 0.0 **** 0.06
15530 H 115.03704991691743 100.98303860308329 108.63768497392098 H 0.0 **** 0.06
15531 C 144.5720481270651 58.282934786595504 34.51230668378872 C 0.0 **** -0.24
15532 H 144.56342608142012 59.35160730098271 34.295099556405376 H 0.0 **** 0.06
15533 H 144.9283231111241 58.122425441589414 35.53096714443876 H 0.0 **** 0.06
15534 H 145.23469105239252 57.77474553585803 33.81146345167639 H 0.0 **** 0.06
15535 H 143.56298685536757 57.884096307257295 34.41348172342964 H 0.0 **** 0.06
15536 C 66.62838046923366 137.84934809296846 166.51325559736665 C 0.0 **** -0.24
15537 H 67.12302086404378 138.8094521595283 166.36495773414939 H 0.0 **** 0.06
15538 H 65.66046918338355 138.0100448697379 166.9881150244455 H 0.0 **** 0.06
15539 H 67.24571601721698 137.21724527517262 167.15157685989226 H 0.0 **** 0.06
15540 H 66.48426757869078 137.36238960812727 165.54977698298583 H 0.0 **** 0.06
15541 C 79.78974397499967 13.18658626119305 96.44262237351398 C 0.0 **** -0.24
15542 H 79.02018030302928 12.947845241020225 95.70823236969753 H 0.0 **** 0.06
15543 H 80.71468136308613 13.44923856374433 95.92788086667923 H 0.0 **** 0.06
15544 H 79.96190598248964 12.321783911153119 97.0825374406617 H 0.0 **** 0.06
15545 H 79.46071350361275 14.029338758705862 97.05238742942225 H 0.0 **** 0.06
15546 C 162.07400387454604 81.98929225951349 156.3865206204503 C 0.0 **** -0.24
15547 H 162.45455947865815 82.9761340135779 156.1228295650532 H 0.0 **** 0.06
15548 H 162.09373517360837 81.87040994156365 157.47041355338854 H 0.0 **** 0.06
15549 H 162.69913507340078 81.22388399453072 155.92522852839775 H 0.0 **** 0.06
15550 H 161.04985497561975 81.88643785864315 156.0281560239867 H 0.0 **** 0.06
15551 C 163.01656190705395 4.130129327663383 112.66218973198403 C 0.0 **** -0.24
15552 H 164.0328919350883 4.328107859054057 113.00125009799544 H 0.0 **** 0.06
15553 H 162.99241630268637 3.1838230953936772 112.11985611853166 H 0.0 **** 0.06
15554 H 162.69004241638018 4.934898416228066 112.00396036052919 H 0.0 **** 0.06
15555 H 162.35132832405392 4.072397650145717 113.52330615766792 H 0.0 **** 0.06
15556 C 152.6168239887357 1.5903370872331877 97.86510855420138 C 0.0 **** -0.24
15557 H 151.64995492687476 1.114657463153101 98.02543404001554 H 0.0 **** 0.06
15558 H 153.32727221567396 1.2304579543257788 98.60960135013443 H 0.0 **** 0.06
15559 H 152.51041445985973 2.6717969262013455 97.95643678134712 H 0.0 **** 0.06
15560 H 152.98150052983155 1.3442019718031375 96.86736924107592 H 0.0 **** 0.06
15561 C 50.75305266785773 134.52757243087575 169.19928489903594 C 0.0 **** -0.24
15562 H 50.2879438026618 134.05740072650997 168.3328193784979 H 0.0 **** 0.06
15563 H 49.97887202925435 134.87811634492158 169.88222669988193 H 0.0 **** 0.06
15564 H 51.358059556338844 135.37342951656916 168.87179801575226 H 0.0 **** 0.06
15565 H 51.386541233145124 133.8023382805594 169.70967968813756 H 0.0 **** 0.06
15566 C 163.15170387077092 45.59475821359483 42.211357975920535 C 0.0 **** -0.24
15567 H 162.96575844788384 44.5378812420837 42.402278245605956 H 0.0 **** 0.06
15568 H 162.20762178821678 46.096227812257766 41.99766086044926 H 0.0 **** 0.06
15569 H 163.81927954617396 45.69602688742677 41.35561411159122 H 0.0 **** 0.06
15570 H 163.6137154961486 46.0475418298808 43.08847508980526 H 0.0 **** 0.06
15571 C 87.82819147127128 24.06121621048964 93.08885836636696 C 0.0 **** -0.24
15572 H 87.13210200422337 23.53907210424586 93.74542152046845 H 0.0 **** 0.06
15573 H 88.21380088881128 23.367058569738468 92.34204866054776 H 0.0 **** 0.06
15574 H 88.65419993055761 24.45877163232435 93.67790749411128 H 0.0 **** 0.06
15575 H 87.30998748962436 24.881316558667116 92.58996530149079 H 0.0 **** 0.06
15576 C 59.623462191908345 150.97511229951243 58.24879038910679 C 0.0 **** -0.24
15577 H 58.730268939249044 151.59719690594267 58.206568381184965 H 0.0 **** 0.06
15578 H 59.48757237078479 150.19470277878946 58.997787807435316 H 0.0 **** 0.06
15579 H 60.48306842318041 151.5897834388893 58.515548138810715 H 0.0 **** 0.06
15580 H 59.79315542194814 150.5172261502156 57.274494409454974 H 0.0 **** 0.06
15581 C 82.44064631243884 84.71889138617155 159.52116156023806 C 0.0 **** -0.24
15582 H 82.643611025957 84.09181093365345 158.65296594947472 H 0.0 **** 0.06
15583 H 81.59359343997994 84.31308020508715 160.07291681398868 H 0.0 **** 0.06
15584 H 82.20896590287765 85.73085576504002 159.1905690027817 H 0.0 **** 0.06
15585 H 83.3196301784568 84.74038993230192 160.1663680358028 H 0.0 **** 0.06
15586 C 29.85597124350545 105.63516720324264 37.51900992026191 C 0.0 **** -0.24
15587 H 29.25300315230328 106.5402886054892 37.45028658038166 H 0.0 **** 0.06
15588 H 30.648610230059376 105.66930513679279 36.77280071881307 H 0.0 **** 0.06
15589 H 29.225022468312147 104.76469430299244 37.34098255840257 H 0.0 **** 0.06
15590 H 30.29567368473272 105.56792283685911 38.51464196698197 H 0.0 **** 0.06
15591 C 7.735799148469333 61.3671533107605 64.35652768939181 C 0.0 **** -0.24
15592 H 6.907676092216413 61.159813445138894 65.0336816946626 H 0.0 **** 0.06
15593 H 7.5409576709453034 60.90152157848158 63.39014366142021 H 0.0 **** 0.06
15594 H 8.65719618173619 60.96289876953345 64.77536888862348 H 0.0 **** 0.06
15595 H 7.837356065366919 62.44525777177786 64.22643853108629 H 0.0 **** 0.06
15596 C 134.60396496740503 113.2834500074419 82.43937793246471 C 0.0 **** -0.24
15597 H 133.52175197192034 113.31808569522144 82.56629364244782 H 0.0 **** 0.06
15598 H 135.08505862393693 113.76545783210972 83.29111707531132 H 0.0 **** 0.06
15599 H 134.8798450018547 113.804631643242 81.52302479327625 H 0.0 **** 0.06
15600 H 134.92868316967653 112.24382600855063 82.37865506537003 H 0.0 **** 0.06
15601 C 0.5262390951623104 133.38684372098535 112.45508059628486 C 0.0 **** -0.24
15602 H -0.24300616925305007 132.86599727947404 113.02594653066438 H 0.0 **** 0.06
15603 H 1.5036255692629368 132.96735271639685 112.6971925783269 H 0.0 **** 0.06
15604 H 0.5116171028441272 134.44671460939955 112.70944860956814 H 0.0 **** 0.06
15605 H 0.3331258397682859 133.26635074142726 111.3899515677382 H 0.0 **** 0.06
15606 C 164.46832941376792 26.400966662803683 6.445115462036959 C 0.0 **** -0.24
15607 H 164.05259983968614 25.429731634986467 6.716219998245073 H 0.0 **** 0.06
15608 H 165.0584118266189 26.787854676936746 7.276192840274618 H 0.0 **** 0.06
15609 H 163.6560157193634 27.092883511642185 6.222275327412703 H 0.0 **** 0.06
15610 H 165.10430845196757 26.29090852679019 5.566712333235138 H 0.0 **** 0.06
15611 C 132.50036175856042 152.0615494206042 168.24936241249955 C 0.0 **** -0.24
15612 H 132.96413236442106 151.07773094085715 168.16777042766145 H 0.0 **** 0.06
15613 H 131.56297450633815 152.06800904258353 167.69211773558018 H 0.0 **** 0.06
15614 H 133.17271825654828 152.81437013868046 167.83965660242436 H 0.0 **** 0.06
15615 H 132.30175330274326 152.28294000132567 169.29818036026674 H 0.0 **** 0.06
15616 C 92.50862297194098 48.168796722166874 28.65670000844402 C 0.0 **** -0.24
15617 H 92.64500594669573 48.75267600347948 29.56733598006153 H 0.0 **** 0.06
15618 H 91.44275491567022 48.05472566566404 28.455694276014157 H 0.0 **** 0.06
15619 H 92.96192937488559 47.186208432567724 28.783363786616675 H 0.0 **** 0.06
15620 H 92.98204102508441 48.682860171688986 27.821261648837762 H 0.0 **** 0.06
15621 C 82.71581241963924 153.23393545672351 170.4579736827526 C 0.0 **** -0.24
15622 H 83.38832235305091 152.58012147867933 169.90115063738966 H 0.0 **** 0.06
15623 H 82.11728425354593 152.63695027668885 171.14657874650848 H 0.0 **** 0.06
15624 H 82.05804273763954 153.75469075094105 169.76209067969788 H 0.0 **** 0.06
15625 H 83.30010113480995 153.96155100800226 171.01987175930861 H 0.0 **** 0.06
15626 C 143.02947284129314 84.20984180007726 131.00770869628406 C 0.0 **** -0.24
15627 H 141.98622735240016 84.49328218283819 131.15263153446392 H 0.0 **** 0.06
15628 H 143.4135206000224 84.6881473520335 130.1063733985339 H 0.0 **** 0.06
15629 H 143.1002627661408 83.1272379311431 130.9024241522255 H 0.0 **** 0.06
15630 H 143.61584915330536 84.53082962733875 131.86848033381634 H 0.0 **** 0.06
15631 C 65.8217057599324 9.021253344598165 75.02002559394441 C 0.0 **** -0.24
15632 H 65.52362223797684 8.238698211870997 74.32221482766346 H 0.0 **** 0.06
15633 H 66.78398691708543 9.43269035605394 74.71566768040731 H 0.0 **** 0.06
15634 H 65.9069138419415 8.600759736089628 76.02255435759122 H 0.0 **** 0.06
15635 H 65.07036289427538 9.811368544742209 75.01975507864921 H 0.0 **** 0.06
15636 C 91.6016703563757 148.71377844779084 66.29001819037386 C 0.0 **** -0.24
15637 H 92.41563116856935 149.23764601633496 65.79078507968444 H 0.0 **** 0.06
15638 H 92.00551253065913 147.88388574123508 66.87050229661669 H 0.0 **** 0.06
15639 H 90.90549367463069 148.33094709088158 65.54414330168166 H 0.0 **** 0.06
15640 H 91.07968132594411 149.40210794876532 66.95541067662953 H 0.0 **** 0.06
15641 C 113.62536361924643 86.60321110382044 85.19976720908477 C 0.0 **** -0.24
15642 H 113.04824472467044 87.5108199351243 85.02220543745386 H 0.0 **** 0.06
15643 H 113.20844360870487 85.78685530289185 84.61043276976937 H 0.0 **** 0.06
15644 H 113.58372765543021 86.34668091848478 86.25810830829238 H 0.0 **** 0.06
15645 H 114.66204107962852 86.77012068091479 84.90679582943608 H 0.0 **** 0.06
15646 C 64.54794570182946 33.95822880571626 126.10543564187012 C 0.0 **** -0.24
15647 H 63.700011141764776 34.200974639469564 126.74552752124174 H 0.0 **** 0.06
15648 H 64.9929455073651 34.87904108817003 125.7284965276877 H 0.0 **** 0.06
15649 H 64.20857753253387 33.34948002096456 125.26740619967674 H 0.0 **** 0.06
15650 H 65.2898666359633 33.40423618682411 126.6807448606609 H 0.0 **** 0.06
15651 C 7.984129406269965 48.49991607454483 160.59565585713318 C 0.0 **** -0.24
15652 H 7.089522077030075 48.85149581668976 161.10971869266916 H 0.0 **** 0.06
15653 H 7.777851098831086 47.53638715173362 160.12692935823307 H 0.0 **** 0.06
15654 H 8.795237117265913 48.38833493823218 161.31416826092718 H 0.0 **** 0.06
15655 H 8.271048025172838 49.221098627968715 159.83124786535254 H 0.0 **** 0.06
15656 C 123.98720823576863 79.35374287019425 123.07413725161771 C 0.0 **** -0.24
15657 H 122.90677476038383 79.3780855391538 122.939237030783 H 0.0 **** 0.06
15658 H 124.46452386389097 79.94382434371832 122.29142859169187 H 0.0 **** 0.06
15659 H 124.33776874899272 78.32306281157605 123.01579222440759 H 0.0 **** 0.06
15660 H 124.24163675700328 79.7690572452002 124.04930866457931 H 0.0 **** 0.06
15661 C 24.26058622160818 161.21682262981227 9.007467586170215 C 0.0 **** -0.24
15662 H 24.005974382287462 161.0320743024099 7.964029499268769 H 0.0 **** 0.06
15663 H 25.090489620011056 160.5721302896182 9.29838053853264 H 0.0 **** 0.06
15664 H 23.396447321885177 161.0038817074961 9.63588009345797 H 0.0 **** 0.06
15665 H 24.551535605970344 162.26073445968143 9.130466659954308 H 0.0 **** 0.06
15666 C 105.93168249403087 125.00703971985689 38.36309862343009 C 0.0 **** -0.24
15667 H 105.92739131293683 124.68719730225376 39.40476583455529 H 0.0 **** 0.06
15668 H 106.9568300816735 125.19968174976322 38.04658691730491 H 0.0 **** 0.06
15669 H 105.34122601410073 125.9182597049329 38.26112556705145 H 0.0 **** 0.06
15670 H 105.4987537949415 124.22343174451885 37.74147698500636 H 0.0 **** 0.06
15671 C 34.09635207771723 139.25488562875057 121.8876642296936 C 0.0 **** -0.24
15672 H 34.40787935532802 138.2723524337237 121.53211046221105 H 0.0 **** 0.06
15673 H 33.04455344082146 139.40941598518918 121.64818946112308 H 0.0 **** 0.06
15674 H 34.69699039162737 140.02335202324937 121.40284451819412 H 0.0 **** 0.06
15675 H 34.23580620213471 139.3106885190177 122.96734231792732 H 0.0 **** 0.06
15676 C 57.4261724021092 121.23676211681587 135.86435847122158 C 0.0 **** -0.24
15677 H 58.43024399004017 120.83143424772507 135.73349674648122 H 0.0 **** 0.06
15678 H 57.18234476411838 121.8825102556196 135.02063540348473 H 0.0 **** 0.06
15679 H 57.3849629179564 121.81440175267565 136.78808431225755 H 0.0 **** 0.06
15680 H 56.70877812317495 120.41761837531135 135.91558511613226 H 0.0 **** 0.06
15681 C 61.797584251310525 89.2626398059122 35.94863199856289 C 0.0 **** -0.24
15682 H 62.43443724269329 89.80795175889283 36.644729915145035 H 0.0 **** 0.06
15683 H 62.39572254228054 88.530058460223 35.406205636992325 H 0.0 **** 0.06
15684 H 61.34936184125479 89.9614601417193 35.24197082873076 H 0.0 **** 0.06
15685 H 61.00993369716741 88.75158540242059 36.50260961206999 H 0.0 **** 0.06
15686 C 105.05140279693046 16.34275289620038 36.441567603337376 C 0.0 **** -0.24
15687 H 105.96741830123386 16.232939676559226 35.85989855978809 H 0.0 **** 0.06
15688 H 104.97987814088657 17.36505510123368 36.81493291043563 H 0.0 **** 0.06
15689 H 105.06853928311699 15.649416623849561 37.281495156274985 H 0.0 **** 0.06
15690 H 104.19169356830315 16.126424870995663 35.80841329681812 H 0.0 **** 0.06
15691 C 69.51111942774726 122.69975492781015 15.54223224738707 C 0.0 **** -0.24
15692 H 69.71147279311165 123.76318737124205 15.670918446929306 H 0.0 **** 0.06
15693 H 70.39915358122923 122.2082456775918 15.144358906964364 H 0.0 **** 0.06
15694 H 68.68118519679133 122.56772545837336 14.846947687267246 H 0.0 **** 0.06
15695 H 69.25126042284961 122.25962133289448 16.504712318621742 H 0.0 **** 0.06
15696 C 148.15326877072232 108.01523135211832 103.8916384694196 C 0.0 **** -0.24
15697 H 147.53184108086458 107.60937977526257 104.69000324422856 H 0.0 **** 0.06
15698 H 148.64210967867086 108.9252894860063 104.23959816352277 H 0.0 **** 0.06
15699 H 147.53003738882768 108.24435324627567 103.02721554726938 H 0.0 **** 0.06
15700 H 148.90861892947953 107.28033051922876 103.61125637213863 H 0.0 **** 0.06
15701 C 94.19486507222135 148.4501518873626 151.30325314061957 C 0.0 **** -0.24
15702 H 93.53374250735965 148.8793560762038 150.54874139589162 H 0.0 **** 0.06
15703 H 94.41884816941828 149.2039652542148 152.05875310443784 H 0.0 **** 0.06
15704 H 95.12031220822112 148.12171374155182 150.83007434649627 H 0.0 **** 0.06
15705 H 93.70350397545391 147.59797881566368 151.77301746382665 H 0.0 **** 0.06
15706 C 55.21417565197885 56.53929290981621 66.23701132419228 C 0.0 **** -0.24
15707 H 54.19848601290619 56.14546745284325 66.20764744983424 H 0.0 **** 0.06
15708 H 55.25057457851631 57.4875001863588 65.70121169080554 H 0.0 **** 0.06
15709 H 55.893007131312515 55.82860020701483 65.7660868316438 H 0.0 **** 0.06
15710 H 55.51265029888077 56.69519717954779 67.27404601468818 H 0.0 **** 0.06
15711 C 60.56586509180353 48.25618909049234 91.17093548078292 C 0.0 **** -0.24
15712 H 59.547176995115066 47.998789179234905 91.46169146783804 H 0.0 **** 0.06
15713 H 60.63331212882912 49.33005655341998 90.99641397221097 H 0.0 **** 0.06
15714 H 60.82793024466142 47.72242989982277 90.25695616465401 H 0.0 **** 0.06
15715 H 61.253460334780826 47.97232651492794 91.96720741035378 H 0.0 **** 0.06
15716 C 132.57293752962897 155.1990340577646 125.19211713018035 C 0.0 **** -0.24
15717 H 132.87780523030312 154.41243648893152 125.88230488220279 H 0.0 **** 0.06
15718 H 132.43706630518204 154.775835077972 124.19638431203293 H 0.0 **** 0.06
15719 H 133.34362673574677 155.96945309028047 125.15769528535964 H 0.0 **** 0.06
15720 H 131.63522977479778 155.63765602066596 125.53136495715404 H 0.0 **** 0.06
15721 C 74.04078886681447 142.02674449319363 13.274791954863502 C 0.0 **** -0.24
15722 H 74.9999801572289 141.62109302198346 12.95298900448546 H 0.0 **** 0.06
15723 H 74.19528128488618 142.99724934326682 13.747215109363964 H 0.0 **** 0.06
15724 H 73.57902261184539 141.3443103070423 13.98861175214833 H 0.0 **** 0.06
15725 H 73.38705396243013 142.14317439462116 12.409741684904816 H 0.0 **** 0.06
15726 C 45.382493081006416 52.45033931326378 40.3208052942214 C 0.0 **** -0.24
15727 H 44.716097094996 53.11070528439586 39.76628897658503 H 0.0 **** 0.06
15728 H 45.541146372727724 51.53320793976455 39.75278558912089 H 0.0 **** 0.06
15729 H 44.93505154738446 52.207867789100646 41.28499761665532 H 0.0 **** 0.06
15730 H 46.338644169843164 52.949337830778106 40.47905751215876 H 0.0 **** 0.06
15731 C 46.01932803713149 114.55372968781313 151.62150668497503 C 0.0 **** -0.24
15732 H 46.50470848999777 113.59790740819625 151.81706422660244 H 0.0 **** 0.06
15733 H 45.278450078162535 114.43031945566321 150.83017109744415 H 0.0 **** 0.06
15734 H 46.766520838115426 115.28344412579338 151.3098515281416 H 0.0 **** 0.06
15735 H 45.52672489263661 114.90307408028684 152.52932155748053 H 0.0 **** 0.06
15736 C 105.78239816016091 38.37644348039606 38.07488632223851 C 0.0 **** -0.24
15737 H 105.42472320713452 39.10663996616353 38.80078225383778 H 0.0 **** 0.06
15738 H 106.85848625579962 38.24459239624446 38.19274606454724 H 0.0 **** 0.06
15739 H 105.5690897968907 38.73058293867115 37.066698368293316 H 0.0 **** 0.06
15740 H 105.2794932522012 37.42364718349256 38.23957101572228 H 0.0 **** 0.06
15741 C 134.69394964008248 142.95964284517305 156.315501589147 C 0.0 **** -0.24
15742 H 134.7150352061281 141.87134610323608 156.26438635552046 H 0.0 **** 0.06
15743 H 134.81085366609597 143.37289598432952 155.3133346890196 H 0.0 **** 0.06
15744 H 135.50824847970839 143.30918205025523 156.95054957261465 H 0.0 **** 0.06
15745 H 133.741289480095 143.28499138378154 156.734650919167 H 0.0 **** 0.06
15746 C 54.04389621615711 24.57285550609624 100.07462092164081 C 0.0 **** -0.24
15747 H 54.319640536171576 25.27204062296734 99.28406638414964 H 0.0 **** 0.06
15748 H 52.971253262026906 24.63948648505707 100.25804558146325 H 0.0 **** 0.06
15749 H 54.58565649567859 24.823866825638277 100.98598214187024 H 0.0 **** 0.06
15750 H 54.29784337965654 23.558658411161737 99.76712415278809 H 0.0 **** 0.06
15751 C 155.60695290490239 161.2064591721567 9.544852865304904 C 0.0 **** -0.24
15752 H 156.68360081137558 161.03800462793674 9.52353305677201 H 0.0 **** 0.06
15753 H 155.3950963511043 162.13326323380028 10.077398824678028 H 0.0 **** 0.06
15754 H 155.1187308396426 160.37487944107937 10.05335612084292 H 0.0 **** 0.06
15755 H 155.22980502485973 161.27985040303315 8.524323876562335 H 0.0 **** 0.06
15756 C 132.91834230562006 62.283508908582874 110.91817369799514 C 0.0 **** -0.24
15757 H 132.1965254546098 62.18666340951438 110.1061862515605 H 0.0 **** 0.06
15758 H 132.44314610288035 62.76928811086 111.77000601790664 H 0.0 **** 0.06
15759 H 133.76358155154338 62.8830181447636 110.58242016468355 H 0.0 **** 0.06
15760 H 133.2685981607637 61.29413501503407 111.2127298476951 H 0.0 **** 0.06
15761 C 35.181000781840225 142.7052885952503 116.76402475382469 C 0.0 **** -0.24
15762 H 35.39796014075017 143.70402878818157 116.38408019048399 H 0.0 **** 0.06
15763 H 34.109937152053135 142.51464699467414 116.69240994115427 H 0.0 **** 0.06
15764 H 35.493269466830895 142.6377882997372 117.80704642926747 H 0.0 **** 0.06
15765 H 35.722641942658356 141.96656315923195 116.17412922138871 H 0.0 **** 0.06
15766 C 67.8533617444503 145.00344266243837 9.353759536888774 C 0.0 **** -0.24
15767 H 67.69561901066217 143.9470528783484 9.13422123683673 H 0.0 **** 0.06
15768 H 67.30346552660976 145.60933777858537 8.633091469098481 H 0.0 **** 0.06
15769 H 68.91670108306835 145.23300512574775 9.286493600890587 H 0.0 **** 0.06
15770 H 67.49669699813549 145.22223613277757 10.360527572100906 H 0.0 **** 0.06
15771 C 41.14309819031038 101.73073062955709 85.64152247334084 C 0.0 **** -0.24
15772 H 40.20177126324222 101.31832399933609 85.27827658785446 H 0.0 **** 0.06
15773 H 41.53030374195987 102.44513212472137 84.91448631798676 H 0.0 **** 0.06
15774 H 41.86429735841023 100.9242854629795 85.77812469621841 H 0.0 **** 0.06
15775 H 40.975811491410354 102.23422324241301 86.59295743986422 H 0.0 **** 0.06
15776 C 99.77932569210469 157.1887442073766 46.62723377268874 C 0.0 **** -0.24
15777 H 99.92056747757121 156.82072290878668 47.643112824149355 H 0.0 **** 0.06
15778 H 99.91535618734363 156.36904629257543 45.92124564380509 H 0.0 **** 0.06
15779 H 100.50999677192607 157.9714130263438 46.41946341794031 H 0.0 **** 0.06
15780 H 98.7735553808611 157.5946303446086 46.52435191755377 H 0.0 **** 0.06
15781 C 154.8387415744004 8.330052151899167 41.677419277090394 C 0.0 **** -0.24
15782 H 154.37642491362283 8.771230552498764 42.560435193562455 H 0.0 **** 0.06
15783 H 155.51756462520984 7.532865615166315 41.98376896903039 H 0.0 **** 0.06
15784 H 155.39707245067922 9.095996380651286 41.139189534462105 H 0.0 **** 0.06
15785 H 154.06532932004868 7.920108583851629 41.02892339926518 H 0.0 **** 0.06
15786 C 31.42077468722215 99.27613202033882 9.482813708776575 C 0.0 **** -0.24
15787 H 30.583208506030914 99.6119949101483 10.09378194235802 H 0.0 **** 0.06
15788 H 31.69324128935925 98.258722668845 9.767751273117142 H 0.0 **** 0.06
15789 H 32.27248799391387 99.93770985732303 9.63857754663411 H 0.0 **** 0.06
15790 H 31.1336817101421 99.2941362693895 8.432098896509274 H 0.0 **** 0.06
15791 C 160.61974149829365 70.60614047276334 136.71111532127003 C 0.0 **** -0.24
15792 H 160.53492852795011 71.59873500187933 136.26929971167655 H 0.0 **** 0.06
15793 H 159.82778811915 69.96700977686919 136.32101664536873 H 0.0 **** 0.06
15794 H 160.52673744316422 70.68090582698437 137.79419544305352 H 0.0 **** 0.06
15795 H 161.5904559241045 70.17751881641004 136.4579607839484 H 0.0 **** 0.06
15796 C 39.90881564495622 127.87571640326468 156.43398327585942 C 0.0 **** -0.24
15797 H 39.93504823257135 126.78665989434018 156.38690907531458 H 0.0 **** 0.06
15798 H 38.887848379464344 128.20572376596937 156.6263765546614 H 0.0 **** 0.06
15799 H 40.25112171405297 128.2887256431406 155.4851671160824 H 0.0 **** 0.06
15800 H 40.55942639885323 128.22041265673238 157.23653687014377 H 0.0 **** 0.06
15801 C 165.006518646747 156.77576013730567 163.43961139887006 C 0.0 **** -0.24
15802 H 166.04111623200717 156.92624265984966 163.74874251324616 H 0.0 **** 0.06
15803 H 164.92525631585468 155.83867731952213 162.88745521339624 H 0.0 **** 0.06
15804 H 164.6939707806664 157.6017018040534 162.80221330913145 H 0.0 **** 0.06
15805 H 164.36747729322923 156.73493560357676 164.3216934195156 H 0.0 **** 0.06
15806 C 85.27212724644846 16.643171124798712 132.06347947509565 C 0.0 **** -0.24
15807 H 85.9901054291741 15.957283814180457 132.51327511247683 H 0.0 **** 0.06
15808 H 84.26836928822485 16.394993256987973 132.408334358642 H 0.0 **** 0.06
15809 H 85.31577327005971 16.55392183990491 130.97712187789526 H 0.0 **** 0.06
15810 H 85.51470731087414 17.66484493923989 132.35413337137828 H 0.0 **** 0.06
15811 C 96.57299103541226 143.48359831034955 163.13252331977495 C 0.0 **** -0.24
15812 H 95.56427379194801 143.61402343507413 162.74062027719413 H 0.0 **** 0.06
15813 H 96.69273154721145 142.4622240532081 163.49355104115315 H 0.0 **** 0.06
15814 H 96.73722043323804 144.18144301439406 163.95281937840164 H 0.0 **** 0.06
15815 H 97.29735940243512 143.67697339212788 162.34069773339968 H 0.0 **** 0.06
15816 C 104.1900561584427 66.6459285632614 156.85208152888043 C 0.0 **** -0.24
15817 H 104.92163122880825 67.40256372900498 157.13603105546358 H 0.0 **** 0.06
15818 H 104.68382168905117 65.67777023903938 156.76775330670625 H 0.0 **** 0.06
15819 H 103.74512672253391 66.91220806751193 155.89332232697342 H 0.0 **** 0.06
15820 H 103.40964499337738 66.59117221748915 157.6112194263786 H 0.0 **** 0.06
15821 C 43.18879335920221 43.77873617061883 46.22127937815485 C 0.0 **** -0.24
15822 H 43.02841307000807 44.74515932192108 46.6984707664497 H 0.0 **** 0.06
15823 H 42.365648386575856 43.569468753234844 45.537139974580626 H 0.0 **** 0.06
15824 H 43.23560039009283 43.000568861533566 46.98359358309736 H 0.0 **** 0.06
15825 H 44.12691377736871 43.79977736665796 45.665731393495065 H 0.0 **** 0.06
15826 C 82.63088312789455 131.57015324232682 55.11011477087794 C 0.0 **** -0.24
15827 H 81.83799595736785 131.83832285620255 55.806985006470796 H 0.0 **** 0.06
15828 H 82.7503016469012 132.36454332436242 54.373330676513945 H 0.0 **** 0.06
15829 H 82.37218582888974 130.64043987655626 54.604218610163485 H 0.0 **** 0.06
15830 H 83.56589098896805 131.4382629596482 55.65602362896939 H 0.0 **** 0.06
15831 C 108.89856419499 16.254149328171962 138.2300444015001 C 0.0 **** -0.24
15832 H 108.13840887987857 15.88388456360579 138.91883328151525 H 0.0 **** 0.06
15833 H 109.1481121066092 15.472815441712186 137.512015579773 H 0.0 **** 0.06
15834 H 109.79099389811242 16.532495781845796 138.78977615575613 H 0.0 **** 0.06
15835 H 108.51433345394386 17.125938007539503 137.70058107154824 H 0.0 **** 0.06
15836 C 29.278997092402278 15.680006471011666 170.65136802997137 C 0.0 **** -0.24
15837 H 28.37959281082459 16.296542233686495 170.63266474893913 H 0.0 **** 0.06
15838 H 29.02842426198879 14.663176016482879 170.34944210778121 H 0.0 **** 0.06
15839 H 29.69050284173545 15.66886364356111 171.6609808565454 H 0.0 **** 0.06
15840 H 30.015780567212573 16.0930848446273 169.963061753898 H 0.0 **** 0.06
15841 C 49.90062664744235 162.87143076392962 37.24481511399341 C 0.0 **** -0.24
15842 H 49.667680195023365 162.0293345024117 36.59256359673657 H 0.0 **** 0.06
15843 H 50.20332987943418 163.7258799637663 36.640390202492796 H 0.0 **** 0.06
15844 H 50.71252983287971 162.59514557282603 37.918240626846 H 0.0 **** 0.06
15845 H 49.01807753026375 163.1323791087922 37.82861918561889 H 0.0 **** 0.06
15846 C 86.54375172587892 20.560788576774968 150.25810634655235 C 0.0 **** -0.24
15847 H 86.70674949169549 21.561580894809083 149.85897525085502 H 0.0 **** 0.06
15848 H 87.47036101189396 20.18992218089562 150.6978341848027 H 0.0 **** 0.06
15849 H 86.23115213967733 19.895267961916346 149.45336850182193 H 0.0 **** 0.06
15850 H 85.76803786605556 20.59695190218605 151.02230486584656 H 0.0 **** 0.06
15851 C 16.323816901116402 18.647073589068683 91.88118179855329 C 0.0 **** -0.24
15852 H 16.985539615910625 18.55543326461995 91.01936261221014 H 0.0 **** 0.06
15853 H 15.30894342192488 18.373511465042377 91.5903522842212 H 0.0 **** 0.06
15854 H 16.33577106566969 19.676050203511707 92.23900351159816 H 0.0 **** 0.06
15855 H 16.66614501035366 17.981410733643628 92.67397094663718 H 0.0 **** 0.06
15856 C 167.15487222252096 132.4142152386383 59.65651411146959 C 0.0 **** -0.24
15857 H 167.16307856928614 133.16860392973638 60.44273578607293 H 0.0 **** 0.06
15858 H 167.29870023029196 132.89650782148658 58.68982566905471 H 0.0 **** 0.06
15859 H 166.19785324511554 131.8933240539037 59.663944607213665 H 0.0 **** 0.06
15860 H 167.9585920771735 131.69949741989637 59.83105062920268 H 0.0 **** 0.06
15861 C 34.08841215126871 140.5175792150176 81.00398429367041 C 0.0 **** -0.24
15862 H 33.53840270666396 139.7696576143437 80.43217217728869 H 0.0 **** 0.06
15863 H 35.13815056795988 140.23162496388582 81.06054023720232 H 0.0 **** 0.06
15864 H 33.673339832416445 140.5819153216873 82.0096159408521 H 0.0 **** 0.06
15865 H 34.00098832257096 141.48646241648993 80.5126538629212 H 0.0 **** 0.06
15866 C 132.49953997887874 124.71911951885093 61.97646830709647 C 0.0 **** -0.24
15867 H 132.42915337624032 125.68934534026522 61.484125151181686 H 0.0 **** 0.06
15868 H 132.48994414477968 124.85997059199818 63.05729534257378 H 0.0 **** 0.06
15869 H 133.4274705567507 124.22982386981656 61.68174678799467 H 0.0 **** 0.06
15870 H 131.6519540680219 124.10086408565411 61.68204428225643 H 0.0 **** 0.06
15871 C 109.10567431985007 86.91437914503042 3.1792623478654036 C 0.0 **** -0.24
15872 H 109.54128804516972 86.13120235533154 2.5577721878806017 H 0.0 **** 0.06
15873 H 108.54872917696454 86.45979400725423 3.9989352472680935 H 0.0 **** 0.06
15874 H 108.43256566556542 87.5236784447395 2.5751942067493303 H 0.0 **** 0.06
15875 H 109.90063302739227 87.54209386859647 3.5831052520762228 H 0.0 **** 0.06
15876 C 143.89199075810703 74.37173346667673 119.03933167052588 C 0.0 **** -0.24
15877 H 143.49766702553944 73.59902778858059 119.69905805749124 H 0.0 **** 0.06
15878 H 143.8447405608755 75.33732021540023 119.54312909304878 H 0.0 **** 0.06
15879 H 143.2961214140304 74.40776901177829 118.12667818611254 H 0.0 **** 0.06
15880 H 144.92735729317374 74.14219767427522 118.78901263106388 H 0.0 **** 0.06
15881 C 60.862706346745995 95.3203035936518 172.72356652420336 C 0.0 **** -0.24
15882 H 60.05850764821304 94.5990037586044 172.86800052216913 H 0.0 **** 0.06
15883 H 61.42161636069329 95.43159121508205 173.65292805619094 H 0.0 **** 0.06
15884 H 60.4388949490193 96.28218439803021 172.4354686332602 H 0.0 **** 0.06
15885 H 61.53012675770873 94.96729008155725 171.93693722057697 H 0.0 **** 0.06
15886 C 124.46847282322665 150.7962325060669 41.036687901198505 C 0.0 **** -0.24
15887 H 124.63238012505701 150.3115143170227 41.99819495195612 H 0.0 **** 0.06
15888 H 125.03538461893214 151.72689822662252 40.99696957421055 H 0.0 **** 0.06
15889 H 123.40666208577937 151.01208903723602 40.91423331062565 H 0.0 **** 0.06
15890 H 124.79976360127696 150.13510606572325 40.235243913977925 H 0.0 **** 0.06
15891 C 28.02705519651849 117.33447842319418 76.20924500533317 C 0.0 **** -0.24
15892 H 26.949039184738076 117.48988381814985 76.16446966191165 H 0.0 **** 0.06
15893 H 28.37757847887633 117.50954166809095 77.227062529215 H 0.0 **** 0.06
15894 H 28.52337888204916 118.02590467952373 75.52843687465094 H 0.0 **** 0.06
15895 H 28.25744327844569 116.30952495665878 75.91682247446369 H 0.0 **** 0.06
15896 C 145.25311519635585 70.27808261530103 43.90009431338228 C 0.0 **** -0.24
15897 H 144.63055748670993 70.04839734534919 44.76575521964335 H 0.0 **** 0.06
15898 H 144.74514853933098 69.95273038063327 42.9921796773622 H 0.0 **** 0.06
15899 H 146.20662910511084 69.7578853268158 43.99067681167185 H 0.0 **** 0.06
15900 H 145.42879120813885 71.35241011003876 43.854088535735684 H 0.0 **** 0.06
15901 C 66.60282062390424 126.35691025711304 125.19968201200098 C 0.0 **** -0.24
15902 H 65.8414050548632 125.63601913935517 124.90371498218383 H 0.0 **** 0.06
15903 H 66.98289276172252 126.86807420274368 124.3149674897762 H 0.0 **** 0.06
15904 H 67.42021555965113 125.8372838954584 125.69886547199934 H 0.0 **** 0.06
15905 H 66.16564050309107 127.08651130648647 125.88247047031024 H 0.0 **** 0.06
15906 C 105.46495247287686 15.190661649396532 154.8274431820811 C 0.0 **** -0.24
15907 H 105.54016566831703 15.1389297037299 155.91378105591374 H 0.0 **** 0.06
15908 H 105.17038411262635 16.197290680185574 154.5317361579394 H 0.0 **** 0.06
15909 H 104.71905138239683 14.47602674490662 154.48003752291717 H 0.0 **** 0.06
15910 H 106.43218900144285 14.950269324796807 154.38524838951642 H 0.0 **** 0.06
15911 C 124.26983344576024 70.70018563898795 41.54740073927067 C 0.0 **** -0.24
15912 H 124.98302903405445 70.52760179563619 40.74206849486126 H 0.0 **** 0.06
15913 H 123.90146363860379 71.72510073881729 41.49133879575564 H 0.0 **** 0.06
15914 H 124.76068412048195 70.54232276498048 42.507561196525955 H 0.0 **** 0.06
15915 H 123.43441828529922 70.00707839770223 41.44759567102449 H 0.0 **** 0.06
15916 C 132.61943579132773 122.31778005050705 112.31793954058952 C 0.0 **** -0.24
15917 H 133.5478458169892 121.93638694984773 112.74160955193378 H 0.0 **** 0.06
15918 H 132.75261737159758 122.49357445175377 111.25064334426901 H 0.0 **** 0.06
15919 H 132.35146022537594 123.25192038777729 112.81033173913346 H 0.0 **** 0.06
15920 H 131.8245441348321 121.5867321960549 112.46947668430897 H 0.0 **** 0.06
15921 C 36.397285919526425 115.22906477837853 94.1960521431485 C 0.0 **** -0.24
15922 H 36.724651294024625 115.35693820277106 95.2279801891419 H 0.0 **** 0.06
15923 H 36.335649596223746 116.20271259922606 93.7108088579601 H 0.0 **** 0.06
15924 H 35.41724146064428 114.75263471719154 94.1834653538138 H 0.0 **** 0.06
15925 H 37.11372279430965 114.60182244865962 93.66392199097828 H 0.0 **** 0.06
15926 C 150.87462606646463 81.81201484187177 38.300434942400216 C 0.0 **** -0.24
15927 H 150.30863266143004 82.69815622808339 38.01403124007902 H 0.0 **** 0.06
15928 H 151.87818811185136 81.87053001561166 37.879610313845205 H 0.0 **** 0.06
15929 H 150.3723861125928 80.92204622795923 37.92204088540274 H 0.0 **** 0.06
15930 H 150.938926016078 81.75816191387285 39.387136630781185 H 0.0 **** 0.06
15931 C 41.12009218017545 9.624038503993916 144.78284531651465 C 0.0 **** -0.24
15932 H 40.63281473874805 8.731327896743807 145.1745322362283 H 0.0 **** 0.06
15933 H 41.515091763143744 9.415151673922907 143.78915080695086 H 0.0 **** 0.06
15934 H 41.93619729570496 9.912037157458116 145.4459949367245 H 0.0 **** 0.06
15935 H 40.39624889731937 10.43704889123569 144.7238605233365 H 0.0 **** 0.06
15936 C 81.68841935811042 78.76862316292294 30.127262505809654 C 0.0 **** -0.24
15937 H 81.41691914719938 78.3263301840527 29.168097881939758 H 0.0 **** 0.06
15938 H 82.01824180514434 77.98387056399577 30.808751114142453 H 0.0 **** 0.06
15939 H 80.82272843068745 79.2771555938395 30.550574619066225 H 0.0 **** 0.06
15940 H 82.49584626004666 79.48595271577763 29.98085454504094 H 0.0 **** 0.06
15941 C 58.83447875722561 88.94474888402618 75.56873761441287 C 0.0 **** -0.24
15942 H 57.76794575580641 88.72490892147721 75.51364719919266 H 0.0 **** 0.06
15943 H 59.187367608884415 88.77256285328096 76.58555304207025 H 0.0 **** 0.06
15944 H 59.00495377822472 89.98584247262916 75.29641875008633 H 0.0 **** 0.06
15945 H 59.37495158680531 88.29513412870217 74.88052764272243 H 0.0 **** 0.06
15946 C 117.0658550835596 158.6721809749935 128.71137602955943 C 0.0 **** -0.24
15947 H 117.04006167430276 159.4899930880727 129.43143868594365 H 0.0 **** 0.06
15948 H 116.64291693609681 159.00889245034367 127.76441567375647 H 0.0 **** 0.06
15949 H 116.48170760958658 157.83454953122018 129.09238584026906 H 0.0 **** 0.06
15950 H 118.09724014153022 158.35676030607817 128.5580404131549 H 0.0 **** 0.06
15951 C 113.90051730437526 87.05065053395475 80.58976287573212 C 0.0 **** -0.24
15952 H 113.67675008083663 87.2485144526586 81.6382495455365 H 0.0 **** 0.06
15953 H 114.94006012847231 86.74078079223338 80.49220473139208 H 0.0 **** 0.06
15954 H 113.73420102918396 87.95721726013004 80.00673209589863 H 0.0 **** 0.06
15955 H 113.248290093841 86.2584753760629 80.22266975564992 H 0.0 **** 0.06
15956 C 1.5795751601768018 135.95610022632945 11.687474415824454 C 0.0 **** -0.24
15957 H 2.581928572306424 135.5688593835704 11.504812569851651 H 0.0 **** 0.06
15958 H 1.602440227010021 137.04630908249771 11.66906082324607 H 0.0 **** 0.06
15959 H 1.2317959901417055 135.61705030395603 12.663591724871367 H 0.0 **** 0.06
15960 H 0.9034046485983538 135.5937007597221 10.91387618680875 H 0.0 **** 0.06
15961 C 125.41486821290053 91.56555630413739 162.24918839167594 C 0.0 **** -0.24
15962 H 125.66500040032784 91.68897873788922 163.30301949002558 H 0.0 **** 0.06
15963 H 125.42801585989974 90.50637909122152 161.99377317545392 H 0.0 **** 0.06
15964 H 126.1461254673066 92.09605059522107 161.63863712990002 H 0.0 **** 0.06
15965 H 124.42107217948089 91.9720113231343 162.0614786539522 H 0.0 **** 0.06
15966 C 149.62860933763727 146.8225877432202 137.53098101734156 C 0.0 **** -0.24
15967 H 148.8943272565478 147.34055512802783 136.9133129648789 H 0.0 **** 0.06
15968 H 149.70415182168261 147.31930296649386 138.4985571228744 H 0.0 **** 0.06
15969 H 150.5992829851886 146.8433458793172 137.03507682547567 H 0.0 **** 0.06
15970 H 149.31720110444178 145.78905171465732 137.67593039243928 H 0.0 **** 0.06
15971 C 69.16396167563008 28.555600900048148 118.67691317823804 C 0.0 **** -0.24
15972 H 70.07664517291995 28.968718938007783 119.10601164780797 H 0.0 **** 0.06
15973 H 68.57795812884483 29.35751340107265 118.22803528308145 H 0.0 **** 0.06
15974 H 68.5791217168349 28.074678025605408 119.46235678304376 H 0.0 **** 0.06
15975 H 69.4210046140879 27.82108357473527 117.91339014371994 H 0.0 **** 0.06
15976 C 27.585834326436114 134.28958262168663 60.95769947611315 C 0.0 **** -0.24
15977 H 28.232376204765913 134.129802219018 61.82026135350647 H 0.0 **** 0.06
15978 H 27.116656867706716 133.34660265291552 60.675112310394496 H 0.0 **** 0.06
15979 H 28.178543527859247 134.66450755325243 60.12390918192949 H 0.0 **** 0.06
15980 H 26.81494861489874 135.01796380673684 61.21172169630508 H 0.0 **** 0.06
15981 C 9.926070227694993 61.14073613813024 76.66262294572948 C 0.0 **** -0.24
15982 H 10.352155762620328 60.27305506073287 76.15917499048982 H 0.0 **** 0.06
15983 H 9.50781856869338 60.83489146415323 77.62226079713457 H 0.0 **** 0.06
15984 H 9.139154866251886 61.56937872672617 76.04243513849786 H 0.0 **** 0.06
15985 H 10.706329819424354 61.8848859142733 76.82486747450434 H 0.0 **** 0.06
15986 C 149.05035175961467 137.2297567292614 67.46079758348603 C 0.0 **** -0.24
15987 H 150.02563584776232 136.75142659252145 67.54808675019503 H 0.0 **** 0.06
15988 H 148.75305406558903 137.25932484642289 66.4123396661752 H 0.0 **** 0.06
15989 H 149.10941066046377 138.24669634502993 67.85091051293384 H 0.0 **** 0.06
15990 H 148.31504165013297 136.66330677378824 68.03178590306916 H 0.0 **** 0.06
15991 C 108.20686706564001 64.04628056591058 145.86324390316543 C 0.0 **** -0.24
15992 H 107.147533577492 64.03169823971128 145.60407187021244 H 0.0 **** 0.06
15993 H 108.68510435014431 64.9025436726215 145.38646008629064 H 0.0 **** 0.06
15994 H 108.67764854233306 63.127054885654786 145.5157369038392 H 0.0 **** 0.06
15995 H 108.31442787854101 64.12373191182974 146.94486080748274 H 0.0 **** 0.06
15996 C 103.96845261726239 111.62551940581477 136.0362762361804 C 0.0 **** -0.24
15997 H 105.03796173180245 111.49991905652769 136.20436247871254 H 0.0 **** 0.06
15998 H 103.6365957229454 112.55873286036945 136.4925709503716 H 0.0 **** 0.06
15999 H 103.42922760631885 110.78993750942277 136.4839072241803 H 0.0 **** 0.06
16000 H 103.76985628727115 111.65417821987046 134.96548712521655 H 0.0 **** 0.06
16001 C 134.5453348564587 113.72581600349073 66.91817498917663 C 0.0 **** -0.24
16002 H 133.66860790111014 113.37190781223478 67.46018330182741 H 0.0 **** 0.06
16003 H 134.31505237466095 113.78165500605598 65.85352893918989 H 0.0 **** 0.06
16004 H 135.37293803169905 113.03452176874916 67.0757930019592 H 0.0 **** 0.06
16005 H 134.82255569841007 114.71480452290965 67.28290570462562 H 0.0 **** 0.06
16006 C 22.066588078822207 69.06364517568079 25.840159350793925 C 0.0 **** -0.24
16007 H 21.64771887907716 70.06760406258911 25.78664038074521 H 0.0 **** 0.06
16008 H 21.434759693527667 68.43975323437786 26.47396529866083 H 0.0 **** 0.06
16009 H 23.070505984981025 69.10988063226915 26.262015133070463 H 0.0 **** 0.06
16010 H 22.112905046568585 68.6351003614256 24.838887024007903 H 0.0 **** 0.06
16011 C 152.29900007911652 118.45724843922946 69.41536245731936 C 0.0 **** -0.24
16012 H 151.42650203597694 118.88362416789258 69.91066650067104 H 0.0 **** 0.06
16013 H 152.49468727056146 119.00326313194608 68.49194830762305 H 0.0 **** 0.06
16014 H 152.10944347738797 117.40896367501034 69.18527220612216 H 0.0 **** 0.06
16015 H 153.16388712241664 118.53479460148691 70.07384568963477 H 0.0 **** 0.06
16016 C 32.61114751318752 68.75583022856927 68.10253775178225 C 0.0 **** -0.24
16017 H 32.560373350613034 67.8902031020445 67.4428735813701 H 0.0 **** 0.06
16018 H 32.23134921267865 69.6336989597612 67.57952920871456 H 0.0 **** 0.06
16019 H 33.646664671522274 68.9282313814179 68.39735509450253 H 0.0 **** 0.06
16020 H 32.00720441128958 68.57216545909068 68.99059413502343 H 0.0 **** 0.06
16021 C 155.74682828292725 139.71434273921975 99.8353561823663 C 0.0 **** -0.24
16022 H 155.09458324743952 140.55298535930956 99.58895571090522 H 0.0 **** 0.06
16023 H 156.51964685849106 139.62013731013516 99.07163306005799 H 0.0 **** 0.06
16024 H 155.15938200164794 138.79661256761204 99.87351902586846 H 0.0 **** 0.06
16025 H 156.21291296774965 139.8891675030163 100.80466497360163 H 0.0 **** 0.06
16026 C 157.82100471142513 144.70001062005758 124.55433531492218 C 0.0 **** -0.24
16027 H 158.89871951376983 144.53645224892708 124.52210673493448 H 0.0 **** 0.06
16028 H 157.49875782237893 145.17487519619291 123.62760247109622 H 0.0 **** 0.06
16029 H 157.57720438416618 145.3449550081438 125.39882707595484 H 0.0 **** 0.06
16030 H 157.31220134285869 143.74287443570245 124.66891560213986 H 0.0 **** 0.06
16031 C 49.475477853629855 99.4765624505718 71.5681596068747 C 0.0 **** -0.24
16032 H 49.78410207807377 100.30637261264269 70.93230713252433 H 0.0 **** 0.06
16033 H 48.812589017901814 98.81755622854814 71.00746416773165 H 0.0 **** 0.06
16034 H 48.95121713471599 99.86421554724836 72.44155868862663 H 0.0 **** 0.06
16035 H 50.35606237762556 98.91972602279947 71.88927529947148 H 0.0 **** 0.06
16036 C 30.318611153691094 149.70840633855533 157.27597811308436 C 0.0 **** -0.24
16037 H 29.360436036018214 150.16060683592428 157.01903579838293 H 0.0 **** 0.06
16038 H 30.433048629692635 149.69280213701472 158.36032528406236 H 0.0 **** 0.06
16039 H 31.12582228452628 150.29261478244246 156.8338040773513 H 0.0 **** 0.06
16040 H 30.353702921078764 148.68888540278965 156.89188461321467 H 0.0 **** 0.06
16041 C 123.72385926126626 86.5728739423614 76.69747558150378 C 0.0 **** -0.24
16042 H 124.69873574771182 86.08753963557368 76.6513384952914 H 0.0 **** 0.06
16043 H 123.01748483362391 85.9203119362153 77.21157305177448 H 0.0 **** 0.06
16044 H 123.3673540596838 86.76893355401913 75.68694511884205 H 0.0 **** 0.06
16045 H 123.81262152929304 87.51384361177413 77.24086544085236 H 0.0 **** 0.06
16046 C 38.705060892138434 24.032585407501877 68.64490415386109 C 0.0 **** -0.24
16047 H 37.889844084708386 24.2926524937794 69.32050230936795 H 0.0 **** 0.06
16048 H 39.37684001375895 24.885140270117276 68.54215095653802 H 0.0 **** 0.06
16049 H 38.2980449247961 23.771214585251457 67.66785681904577 H 0.0 **** 0.06
16050 H 39.25549631553007 23.182748235433813 69.04912788465896 H 0.0 **** 0.06
16051 C 169.80880643484514 5.318308689909799 4.210916453125776 C 0.0 **** -0.24
16052 H 170.4384493115942 4.721790869775731 4.871831387655504 H 0.0 **** 0.06
16053 H 169.12283332757312 4.664209838622554 3.6739008693594712 H 0.0 **** 0.06
16054 H 170.4362038110766 5.853927469643764 3.497547490639022 H 0.0 **** 0.06
16055 H 169.23938409265614 6.035702542562376 4.802742838805614 H 0.0 **** 0.06
16056 C 18.864805767403425 94.04265298656725 73.78854623840212 C 0.0 **** -0.24
16057 H 19.266722949106736 95.02878664829382 74.01818753914137 H 0.0 **** 0.06
16058 H 19.68359219802801 93.32884613972263 73.69650950762122 H 0.0 **** 0.06
16059 H 18.312338200138754 94.08497619509035 72.84963328652867 H 0.0 **** 0.06
16060 H 18.195909874531424 93.72641167043483 74.59003482054146 H 0.0 **** 0.06
16061 C 75.04515188931434 84.08775752430961 45.909253022336515 C 0.0 **** -0.24
16062 H 74.98794496779308 84.65817883858557 44.98193965014981 H 0.0 **** 0.06
16063 H 75.25090720282844 83.04186924582461 45.6792341676733 H 0.0 **** 0.06
16064 H 74.09717398958186 84.16392591542257 46.44201795024604 H 0.0 **** 0.06
16065 H 75.84521859208535 84.48745484166261 46.53225985041679 H 0.0 **** 0.06
16066 C 40.856597365777475 40.80984201617218 37.33795152071076 C 0.0 **** -0.24
16067 H 40.485793855345534 41.826860373673014 37.47043788867893 H 0.0 **** 0.06
16068 H 40.188891754345164 40.26450567083572 36.67071641900418 H 0.0 **** 0.06
16069 H 40.89425979366935 40.30839190359575 38.30422656851347 H 0.0 **** 0.06
16070 H 41.856802215010745 40.842029513650516 36.90510809745558 H 0.0 **** 0.06
16071 C 19.426339217016107 34.929669922220555 13.449628220784632 C 0.0 **** -0.24
16072 H 19.25384519108377 34.74006362880077 12.389495450338188 H 0.0 **** 0.06
16073 H 18.83989127599102 34.2297510933211 14.043711205259171 H 0.0 **** 0.06
16074 H 19.126359193987014 35.95032318831545 13.688299747129463 H 0.0 **** 0.06
16075 H 20.485209292034142 34.80065027924677 13.673463599656287 H 0.0 **** 0.06
16076 C 78.46028092639409 54.9509089046301 4.47791914051254 C 0.0 **** -0.24
16077 H 78.41685188514766 56.037670513311156 4.399942638659269 H 0.0 **** 0.06
16078 H 77.44756306834383 54.551907989912365 4.5386233884757985 H 0.0 **** 0.06
16079 H 79.01524990449238 54.672951680273 5.373420326350924 H 0.0 **** 0.06
16080 H 78.95962887530756 54.54332055456021 3.5988272495491174 H 0.0 **** 0.06
16081 C 80.3847270654666 41.65673773004238 41.53144657093202 C 0.0 **** -0.24
16082 H 79.49692178715557 41.762162238972394 42.154142015496234 H 0.0 **** 0.06
16083 H 80.45800590941751 40.62987131568457 41.172989085195354 H 0.0 **** 0.06
16084 H 81.27096575149703 41.90129025796611 42.11719757931348 H 0.0 **** 0.06
16085 H 80.31311144053804 42.334720208428166 40.68011750017047 H 0.0 **** 0.06
16086 C 65.48799351687299 70.80453097714678 40.15394478659316 C 0.0 **** -0.24
16087 H 66.09717929107241 70.02446005274446 39.69633222529053 H 0.0 **** 0.06
16088 H 65.82489739846629 70.97428023925274 41.17645304588959 H 0.0 **** 0.06
16089 H 64.44372071166032 70.49221759858547 40.160715795936255 H 0.0 **** 0.06
16090 H 65.58843077587275 71.72593243000672 39.57955821865333 H 0.0 **** 0.06
16091 C 17.129462426514067 25.082935987698512 55.45146993833373 C 0.0 **** -0.24
16092 H 17.905565464030218 24.317437327186717 55.427803870517494 H 0.0 **** 0.06
16093 H 16.84851932322536 25.28346705585411 56.4846792144416 H 0.0 **** 0.06
16094 H 16.257637739821234 24.732188523836555 54.89831341011882 H 0.0 **** 0.06
16095 H 17.506978585540082 25.996631717950656 54.9924003932411 H 0.0 **** 0.06
16096 C 83.90862905988263 96.70036654477354 144.68365408924055 C 0.0 **** -0.24
16097 H 83.78475328533341 97.5774469506735 145.31920971346076 H 0.0 **** 0.06
16098 H 83.65591312336488 95.80384335519011 145.2495896026981 H 0.0 **** 0.06
16099 H 84.94329359726572 96.63958763720473 144.34661641095857 H 0.0 **** 0.06
16100 H 83.24811807882162 96.78299353689454 143.81972049940003 H 0.0 **** 0.06
16101 C 4.166426432583101 14.877829482731272 65.58942564348334 C 0.0 **** -0.24
16102 H 3.3258317722039834 14.338747007363764 66.02582669093647 H 0.0 **** 0.06
16103 H 3.896956449330901 15.926253346412494 65.4576244854668 H 0.0 **** 0.06
16104 H 4.414063223435946 14.442836748883593 64.62188934633508 H 0.0 **** 0.06
16105 H 5.028541347502404 14.804395803927491 66.25261684006014 H 0.0 **** 0.06
16106 C 58.1985531643881 124.43192783378072 6.8923199042131955 C 0.0 **** -0.24
16107 H 58.26049819136398 125.40504161475963 6.40570758079437 H 0.0 **** 0.06
16108 H 58.70196631201998 123.68569147914684 6.277948126801448 H 0.0 **** 0.06
16109 H 57.152008696062865 124.15345108481398 7.017422146288965 H 0.0 **** 0.06
16110 H 58.679286929998796 124.48353838744362 7.869093458043835 H 0.0 **** 0.06
16111 C 67.31398200526029 140.37207352591668 161.7571011167552 C 0.0 **** -0.24
16112 H 67.4096989619946 139.73885954186136 160.87478908952255 H 0.0 **** 0.06
16113 H 67.64930971296621 139.82154583763273 162.63617607565394 H 0.0 **** 0.06
16114 H 66.27109319675172 140.66203871987292 161.88487553589061 H 0.0 **** 0.06
16115 H 67.9269195742914 141.2644795611487 161.63117580086728 H 0.0 **** 0.06
16116 C 39.93450763430877 39.94433057272094 60.419591438006336 C 0.0 **** -0.24
16117 H 40.90277458451084 39.79994504915676 59.93895732049636 H 0.0 **** 0.06
16118 H 40.042569644185164 40.64502535582858 61.2470934553027 H 0.0 **** 0.06
16119 H 39.569935976178556 38.98906447307496 60.796545485960195 H 0.0 **** 0.06
16120 H 39.22554818070239 40.34313751912836 59.6946971899702 H 0.0 **** 0.06
16121 C 73.51969955922584 79.04259210838107 59.8500653736877 C 0.0 **** -0.24
16122 H 73.09934006294327 79.71400029035519 59.10083700228154 H 0.0 **** 0.06
16123 H 72.71159684590111 78.53689754111288 60.3786495164004 H 0.0 **** 0.06
16124 H 74.1147504475249 79.61771090031792 60.55844377529604 H 0.0 **** 0.06
16125 H 74.15313818620501 78.30281498260622 59.35888359293483 H 0.0 **** 0.06
16126 C 100.63165660138506 11.297852010818161 83.39103094571402 C 0.0 **** -0.24
16127 H 100.69787280837915 10.772527612445856 84.34359740801983 H 0.0 **** 0.06
16128 H 100.8876611739652 10.615761307803666 82.58083276521086 H 0.0 **** 0.06
16129 H 101.3255944288766 12.138878261448411 83.39161740038321 H 0.0 **** 0.06
16130 H 99.61552157807105 11.66595689847236 83.25053688243474 H 0.0 **** 0.06
16131 C 165.29625855942578 57.41629176002331 144.16808479021267 C 0.0 **** -0.24
16132 H 165.46548457266042 56.61169159972171 143.45267629442557 H 0.0 **** 0.06
16133 H 164.58288173105998 57.08645667224282 144.92312683659378 H 0.0 **** 0.06
16134 H 164.89717952339743 58.28661980206118 143.64664618204526 H 0.0 **** 0.06
16135 H 166.23887523042802 57.68037909410933 144.64827006415965 H 0.0 **** 0.06
16136 C 63.16760481975042 130.25423613860295 163.90324161812873 C 0.0 **** -0.24
16137 H 63.323043712189474 131.32515774533474 163.76896252496564 H 0.0 **** 0.06
16138 H 62.32937156488347 130.09092729189493 164.5803689383309 H 0.0 **** 0.06
16139 H 64.0685233302543 129.80800582426957 164.32507280022588 H 0.0 **** 0.06
16140 H 62.95172583696176 129.79466201506742 162.93939254338514 H 0.0 **** 0.06
16141 C 86.4823880330638 15.455132540147552 146.16151895631447 C 0.0 **** -0.24
16142 H 86.6137698357618 15.402136414201642 147.24215784628927 H 0.0 **** 0.06
16143 H 87.43761017681855 15.270255458713436 145.67011555180554 H 0.0 **** 0.06
16144 H 86.11798019660475 16.445632337314656 145.8880225545504 H 0.0 **** 0.06
16145 H 85.76019192307011 14.702505950360553 145.84577987261272 H 0.0 **** 0.06
16146 C 32.508331271835516 53.14847728239843 86.45191378079919 C 0.0 **** -0.24
16147 H 32.28102151416729 54.204609873358166 86.59183293316133 H 0.0 **** 0.06
16148 H 33.338176583917345 52.86599080043284 87.09978825382258 H 0.0 **** 0.06
16149 H 32.783336694242735 52.97153777592567 85.41152700258361 H 0.0 **** 0.06
16150 H 31.631814454911932 52.551472187241004 86.70254170124844 H 0.0 **** 0.06
16151 C 103.18650590232156 113.70010552140232 74.9004645939592 C 0.0 **** -0.24
16152 H 102.55216077186432 112.8143688665208 74.93176975513269 H 0.0 **** 0.06
16153 H 102.56197483116844 114.59097628082648 74.83071913674019 H 0.0 **** 0.06
16154 H 103.84231750085303 113.64613424168638 74.0319339887881 H 0.0 **** 0.06
16155 H 103.78834785263328 113.74740851231758 75.80850859281 H 0.0 **** 0.06
16156 C 74.9361113953155 95.25813516770114 50.16417121275185 C 0.0 **** -0.24
16157 H 73.90129952780606 94.91768978539801 50.20758250267875 H 0.0 **** 0.06
16158 H 74.99566301979748 96.28468573969792 50.528663696846934 H 0.0 **** 0.06
16159 H 75.28759949838052 95.2174537702497 49.13370758261101 H 0.0 **** 0.06
16160 H 75.55721846483502 94.61408819573336 50.78677597826149 H 0.0 **** 0.06
16161 C 19.62918773597079 110.16968816854214 85.56125133708241 C 0.0 **** -0.24
16162 H 19.466277063436024 111.24588916790304 85.51937458854164 H 0.0 **** 0.06
16163 H 19.831797965356742 109.87208301588566 86.5905275288617 H 0.0 **** 0.06
16164 H 20.47954939319777 109.90531858630811 84.93191121592717 H 0.0 **** 0.06
16165 H 18.737821619829987 109.65353507475297 85.20242734057534 H 0.0 **** 0.06
16166 C 130.79909959177567 119.9851924013058 53.62348758244801 C 0.0 **** -0.24
16167 H 131.13328422836366 118.9504531708483 53.69368385019882 H 0.0 **** 0.06
16168 H 129.75542389318576 120.05136508762698 53.930865846550915 H 0.0 **** 0.06
16169 H 130.8987300835152 120.32956442038076 52.59404847929473 H 0.0 **** 0.06
16170 H 131.41061811105402 120.60801413368719 54.27595778150304 H 0.0 **** 0.06
16171 C 153.23048354759882 104.30538732370002 31.86779794943996 C 0.0 **** -0.24
16172 H 153.47518426794525 105.36790032962804 31.85427464920025 H 0.0 **** 0.06
16173 H 152.25410217977938 104.16375058409477 32.32981159455659 H 0.0 **** 0.06
16174 H 153.98615773263845 103.76734377229883 32.44145716033404 H 0.0 **** 0.06
16175 H 153.20889992698972 103.92425194175107 30.847724862823668 H 0.0 **** 0.06
16176 C 118.62778985712794 17.582071021547335 107.21868352855782 C 0.0 **** -0.24
16177 H 118.93482732603479 18.49112868090201 107.73690778573413 H 0.0 **** 0.06
16178 H 117.99068297255144 17.843469882288645 106.37360149318724 H 0.0 **** 0.06
16179 H 118.07611818926989 16.940475672211022 107.90557140528531 H 0.0 **** 0.06
16180 H 119.51061838759097 17.054089455393132 106.85844411981401 H 0.0 **** 0.06
16181 C 76.96447632668378 65.12857383771242 20.861786533392753 C 0.0 **** -0.24
16182 H 76.71432939551403 64.8733103049869 19.832978887155484 H 0.0 **** 0.06
16183 H 76.05306810980548 65.3838151048509 21.40455002432929 H 0.0 **** 0.06
16184 H 77.64363252096902 65.98067328998178 20.870649532214244 H 0.0 **** 0.06
16185 H 77.44562530596752 64.27547466829151 21.340514704656307 H 0.0 **** 0.06
16186 C 153.4963620477221 9.228046540145428 4.243268970079839 C 0.0 **** -0.24
16187 H 154.53465100306917 9.06591020699772 3.954253342501559 H 0.0 **** 0.06
16188 H 153.09988882894098 10.089023914045036 3.70592633402962 H 0.0 **** 0.06
16189 H 153.4434047990609 9.412131284067094 5.31626035824975 H 0.0 **** 0.06
16190 H 152.909288946753 8.343005950708275 3.997219127423641 H 0.0 **** 0.06
16191 C 116.80946817057065 126.62486600358423 117.93666561926781 C 0.0 **** -0.24
16192 H 117.68596069866646 126.20612141428242 118.42977409024124 H 0.0 **** 0.06
16193 H 116.21548500086004 127.18207999945227 118.66108244775069 H 0.0 **** 0.06
16194 H 116.20804124430606 125.8169290993471 117.51850197828276 H 0.0 **** 0.06
16195 H 117.12742474071479 127.29317614225309 117.13644542291809 H 0.0 **** 0.06
16196 C 107.93220381954433 49.757747843521315 12.56601729018027 C 0.0 **** -0.24
16197 H 107.21217356884182 49.876198500466714 13.37676577893501 H 0.0 **** 0.06
16198 H 108.92704581588606 50.024483505623266 12.923530492544955 H 0.0 **** 0.06
16199 H 107.65626323275723 50.40903914362349 11.737361397160328 H 0.0 **** 0.06
16200 H 107.93252894590768 48.72122626249464 12.229629009314493 H 0.0 **** 0.06
16201 C 56.35543410115997 5.453183290772202 87.09220231418658 C 0.0 **** -0.24
16202 H 55.40868990549386 4.92476063703856 87.21184411858448 H 0.0 **** 0.06
16203 H 56.2280581089901 6.269609800418657 86.38182123556037 H 0.0 **** 0.06
16204 H 57.11147534812942 4.761910999591592 86.71931164852472 H 0.0 **** 0.06
16205 H 56.671106932785676 5.853590176708096 88.05568203826778 H 0.0 **** 0.06
16206 C 0.08232946753766868 126.25940796324178 124.39937205545289 C 0.0 **** -0.24
16207 H 0.5109816468316168 126.0749551737537 125.3850442608682 H 0.0 **** 0.06
16208 H 0.45137928341298306 127.20959019935628 124.01456936695885 H 0.0 **** 0.06
16209 H -1.0045575932620139 126.29588837641279 124.47842206433893 H 0.0 **** 0.06
16210 H 0.37010447279815395 125.45557462614653 123.7221684800131 H 0.0 **** 0.06
16211 C 17.701345699657423 115.4467489485497 123.51279713841313 C 0.0 **** -0.24
16212 H 17.525959585759438 116.52252685386347 123.48485406975004 H 0.0 **** 0.06
16213 H 17.352625093575 114.99790318678961 122.58299415278259 H 0.0 **** 0.06
16214 H 17.158484145673384 115.01241865272232 124.35248620062418 H 0.0 **** 0.06
16215 H 18.767791435904286 115.25623853786325 123.63201732138006 H 0.0 **** 0.06
16216 C 48.05641552054021 33.6736626211233 139.0925080707416 C 0.0 **** -0.24
16217 H 48.724137293655644 34.52665767944288 139.2089607169568 H 0.0 **** 0.06
16218 H 48.63945171470505 32.787013829315626 138.84351429464232 H 0.0 **** 0.06
16219 H 47.345504779055716 33.87655439335897 138.29186394435942 H 0.0 **** 0.06
16220 H 47.51666975269114 33.50448003591271 140.02346021911757 H 0.0 **** 0.06
16221 C 143.43262901722616 29.14057065696798 86.6579059882443 C 0.0 **** -0.24
16222 H 144.33291093182095 28.54224313556948 86.51442127120072 H 0.0 **** 0.06
16223 H 142.8020540742547 28.67104018402891 87.4127586594687 H 0.0 **** 0.06
16224 H 142.88639913411487 29.20629135149565 85.71744819363482 H 0.0 **** 0.06
16225 H 143.71095226256125 30.14104697423336 86.98698569868844 H 0.0 **** 0.06
16226 C 85.96089427935235 63.07707597374002 74.11795446286607 C 0.0 **** -0.24
16227 H 86.67551407167707 62.383886027024914 74.56330317461914 H 0.0 **** 0.06
16228 H 86.0028538023956 62.993353038413176 73.03133167039573 H 0.0 **** 0.06
16229 H 86.21049812026027 64.09540108558514 74.41401871568829 H 0.0 **** 0.06
16230 H 84.95637944200548 62.834076806965186 74.46232852130137 H 0.0 **** 0.06
16231 C 171.18657175480786 5.177126438395945 164.2859643505011 C 0.0 **** -0.24
16232 H 172.2449137598262 4.920188776460989 164.23363420621953 H 0.0 **** 0.06
16233 H 171.07057342473988 6.127967220664004 164.80760064397495 H 0.0 **** 0.06
16234 H 170.64961942939013 4.397526921081443 164.8271122056024 H 0.0 **** 0.06
16235 H 170.78331018665187 5.2636615600696075 163.27744963049955 H 0.0 **** 0.06
16236 C 102.31375517518197 21.506663411106047 123.66678915187455 C 0.0 **** -0.24
16237 H 102.39618105946869 21.050535637007954 122.68041569152385 H 0.0 **** 0.06
16238 H 101.60850718969454 20.936236520467787 124.27221186355581 H 0.0 **** 0.06
16239 H 101.95777540663875 22.531976427412076 123.56335403050952 H 0.0 **** 0.06
16240 H 103.29065792806404 21.507990100271968 124.14999762525647 H 0.0 **** 0.06
16241 C 149.88062386098918 64.59862210586351 91.1240670254323 C 0.0 **** -0.24
16242 H 148.81017481880193 64.48024633027336 91.29001939699404 H 0.0 **** 0.06
16243 H 150.20362415237676 63.9152191085754 90.33886556420818 H 0.0 **** 0.06
16244 H 150.41770536249072 64.37408382515645 92.04541234421777 H 0.0 **** 0.06
16245 H 150.0900083944627 65.62499508084431 90.82179424507653 H 0.0 **** 0.06
16246 C 146.7468104689356 10.667825066202113 19.76857401593537 C 0.0 **** -0.24
16247 H 147.00433482612044 11.454351269900457 19.05924763061202 H 0.0 **** 0.06
16248 H 146.1049404032691 11.078169672948889 20.548751774013937 H 0.0 **** 0.06
16249 H 147.65801158872836 10.272181530133736 20.218097006151055 H 0.0 **** 0.06
16250 H 146.22089599871043 9.866779826115135 19.247914133574795 H 0.0 **** 0.06
16251 C 92.45577360335335 156.27076200163617 22.65508292781351 C 0.0 **** -0.24
16252 H 91.53477631588218 156.58587174098537 23.14610232498231 H 0.0 **** 0.06
16253 H 93.3105951265035 156.70469863642637 23.174566678665286 H 0.0 **** 0.06
16254 H 92.44846824093503 156.61040641356362 21.619297962386042 H 0.0 **** 0.06
16255 H 92.52780303112266 155.18400663938172 22.680747984515506 H 0.0 **** 0.06
16256 C 115.17600486438161 131.18600899849935 156.65827903610955 C 0.0 **** -0.24
16257 H 115.53061135956932 131.9833773451926 156.0062728261485 H 0.0 **** 0.06
16258 H 115.23765383467179 131.51156077812473 157.69687936283492 H 0.0 **** 0.06
16259 H 115.79369173686547 130.29955116992357 156.51774575687242 H 0.0 **** 0.06
16260 H 114.14012724571742 130.95066299946498 156.412311501611 H 0.0 **** 0.06
16261 C 37.15586246609041 53.87257100762557 14.138036956266859 C 0.0 **** -0.24
16262 H 36.291783209978234 54.05291867449206 14.77834623513695 H 0.0 **** 0.06
16263 H 37.25365310441481 54.68900152195471 13.421916564834532 H 0.0 **** 0.06
16264 H 37.02005900970323 52.932539923005905 13.603449114905516 H 0.0 **** 0.06
16265 H 38.056012026171004 53.816363572941015 14.750419751789451 H 0.0 **** 0.06
16266 C 58.251924943390165 58.09274724792246 101.25649767135235 C 0.0 **** -0.24
16267 H 59.18546929294095 57.66238852501726 101.6194763377323 H 0.0 **** 0.06
16268 H 57.58440677069299 58.27454664209979 102.09901750180939 H 0.0 **** 0.06
16269 H 57.77931320175648 57.400280030713276 100.56116938130054 H 0.0 **** 0.06
16270 H 58.45981457872051 59.03452941585893 100.74718099792273 H 0.0 **** 0.06
16271 C 105.6031982814446 140.27383911043913 94.54902481019082 C 0.0 **** -0.24
16272 H 105.13643942207827 141.06496037787096 95.13566480738956 H 0.0 **** 0.06
16273 H 106.51918692475053 139.94847151734353 95.04238869763512 H 0.0 **** 0.06
16274 H 105.84005971962972 140.6518071391024 93.55357714051931 H 0.0 **** 0.06
16275 H 104.916717197819 139.43145811865884 94.46272198676414 H 0.0 **** 0.06
16276 C 136.2548902454671 9.076273129762924 132.1970762749931 C 0.0 **** -0.24
16277 H 136.8900363538283 9.647530392605603 132.87420680144675 H 0.0 **** 0.06
16278 H 135.20835387142296 9.307863096515177 132.39885568819386 H 0.0 **** 0.06
16279 H 136.42714865476563 8.010469839349831 132.34974779942848 H 0.0 **** 0.06
16280 H 136.49375316522327 9.339212957018418 131.16645784646562 H 0.0 **** 0.06
16281 C 149.67866701046822 41.43915660612396 35.23327580376463 C 0.0 **** -0.24
16282 H 149.27955594285356 42.0746939100153 36.024486842037675 H 0.0 **** 0.06
16283 H 149.17441719910062 41.66715822306185 34.294864624722095 H 0.0 **** 0.06
16284 H 149.51393922072944 40.39233741492205 35.49012117455618 H 0.0 **** 0.06
16285 H 150.7481732448594 41.623031613246724 35.125254438093066 H 0.0 **** 0.06
16286 C 162.07654199457386 63.80458295950092 70.86144459164214 C 0.0 **** -0.24
16287 H 161.95443691925826 63.13866159767582 70.00771087971714 H 0.0 **** 0.06
16288 H 161.27471800131792 64.54364061928788 70.86325376317039 H 0.0 **** 0.06
16289 H 163.03966086560587 64.31119401382657 70.79286260595337 H 0.0 **** 0.06
16290 H 162.0366454816562 63.22267429568481 71.78286186489177 H 0.0 **** 0.06
16291 C 127.31232702308719 148.35900122064885 129.95861191530662 C 0.0 **** -0.24
16292 H 126.70300673994367 147.74855890184557 129.2921059858031 H 0.0 **** 0.06
16293 H 127.92932215229777 147.71082878332467 130.58068480346313 H 0.0 **** 0.06
16294 H 126.6635689225032 148.96181364704654 130.5925632039599 H 0.0 **** 0.06
16295 H 127.95306727921977 149.01306006333843 129.3677361906678 H 0.0 **** 0.06
16296 C 106.85364261169892 17.630496924116443 66.20769372966915 C 0.0 **** -0.24
16297 H 107.88343244612744 17.301506675131634 66.34949470900048 H 0.0 **** 0.06
16298 H 106.67956855618976 17.836432499852947 65.15139218298584 H 0.0 **** 0.06
16299 H 106.67862335919887 18.53566687439323 66.78855067128868 H 0.0 **** 0.06
16300 H 106.17387406084501 16.846541512857215 66.5422050575528 H 0.0 **** 0.06
16301 C 10.542759738772048 24.570346369960305 49.68442289200374 C 0.0 **** -0.24
16302 H 9.91986612659494 25.432097794983065 49.92602429721137 H 0.0 **** 0.06
16303 H 9.967646655188503 23.655350936060188 49.82729167757989 H 0.0 **** 0.06
16304 H 11.415563166363654 24.55806263272143 50.33644777101692 H 0.0 **** 0.06
16305 H 10.866169956103363 24.637044423979262 48.644859314564286 H 0.0 **** 0.06
16306 C 8.971967223033232 98.54999235063471 131.01964677922322 C 0.0 **** -0.24
16307 H 7.915268619467042 98.60458296147814 131.2826356186796 H 0.0 **** 0.06
16308 H 9.078007268306749 98.57937280598131 129.93454147400865 H 0.0 **** 0.06
16309 H 9.393203459223344 97.61992582049245 131.40145232091444 H 0.0 **** 0.06
16310 H 9.499888476315277 99.39564911969887 131.4607022991447 H 0.0 **** 0.06
16311 C 147.49059835294656 60.9942891783119 94.99905983234282 C 0.0 **** -0.24
16312 H 146.65125020268243 60.718126439326156 94.36165887541074 H 0.0 **** 0.06
16313 H 147.58473799105286 62.08053929447783 95.0270176585116 H 0.0 **** 0.06
16314 H 148.40774867391187 60.55947396499576 94.60159636617612 H 0.0 **** 0.06
16315 H 147.31920314837706 60.61892125595941 96.00813257649261 H 0.0 **** 0.06
16316 C 15.280090978381573 83.27402825572564 98.88686821212642 C 0.0 **** -0.24
16317 H 16.0148608422339 83.971336288791 99.28760366156669 H 0.0 **** 0.06
16318 H 14.761756704613063 82.77949780597228 99.70899011805597 H 0.0 **** 0.06
16319 H 15.78493066725676 82.52692676644531 98.27384989414773 H 0.0 **** 0.06
16320 H 14.559051287575372 83.81731747932237 98.27609430229717 H 0.0 **** 0.06
16321 C 125.6710273951104 99.0608609850004 82.12326253141651 C 0.0 **** -0.24
16322 H 125.36282944920592 98.83627373258207 81.10251096690706 H 0.0 **** 0.06
16323 H 124.81135805578364 98.97946682724765 82.7888020246082 H 0.0 **** 0.06
16324 H 126.07103120841512 100.07399524821349 82.16719551052552 H 0.0 **** 0.06
16325 H 126.43967762501367 98.35318254469021 82.4342178986785 H 0.0 **** 0.06
16326 C 34.68192502909338 13.7206901910277 92.96714530678844 C 0.0 **** -0.24
16327 H 33.86728296343665 13.597655897994741 93.68090651076187 H 0.0 **** 0.06
16328 H 34.271950668622395 13.960721087214182 91.98645964915107 H 0.0 **** 0.06
16329 H 35.25307489389638 12.7943725068032 92.90530224080004 H 0.0 **** 0.06
16330 H 35.334868077692704 14.529356298790617 93.29645777811214 H 0.0 **** 0.06
16331 C 152.914026251873 160.79155704551349 137.63991907729638 C 0.0 **** -0.24
16332 H 152.54949874935403 161.79536682770487 137.86107025401583 H 0.0 **** 0.06
16333 H 152.08538487727998 160.08481290811108 137.6975768560061 H 0.0 **** 0.06
16334 H 153.67879917079944 160.51563744191634 138.36458857814085 H 0.0 **** 0.06
16335 H 153.3393011560098 160.77247420392797 136.63649180752776 H 0.0 **** 0.06
16336 C 102.89735158796452 163.0884746934484 43.14026162368111 C 0.0 **** -0.24
16337 H 103.63772686749866 163.68806023428658 43.67005763762023 H 0.0 **** 0.06
16338 H 101.92865825525882 163.18992953008677 43.63020993244294 H 0.0 **** 0.06
16339 H 103.20289377284479 162.0417441845205 43.151682161734925 H 0.0 **** 0.06
16340 H 102.82089406924132 163.43299077573198 42.10891245626573 H 0.0 **** 0.06
16341 C 44.33040315683593 126.83620638872719 147.79805692138385 C 0.0 **** -0.24
16342 H 44.045627315095246 126.27945207649418 148.69109138556547 H 0.0 **** 0.06
16343 H 45.40619753905199 127.01039293497382 147.80634361441935 H 0.0 **** 0.06
16344 H 43.8066683702982 127.79222012622796 147.78371111164347 H 0.0 **** 0.06
16345 H 44.06208272412397 126.26145829970318 146.91060212536343 H 0.0 **** 0.06
16346 C 147.4358837422135 44.073274777007555 136.12165473098688 C 0.0 **** -0.24
16347 H 147.36869308933257 44.78293473513588 136.9466270711388 H 0.0 **** 0.06
16348 H 147.10434358634095 44.55429148044641 135.20081203375287 H 0.0 **** 0.06
16349 H 146.80172381712194 43.21232030582743 136.33111296034437 H 0.0 **** 0.06
16350 H 148.4684994499462 43.744754277521054 136.00875993553316 H 0.0 **** 0.06
16351 C 135.30646553847842 81.99189126405548 149.94972955200353 C 0.0 **** -0.24
16352 H 136.19957290791695 81.46244030296711 150.28439975302038 H 0.0 **** 0.06
16353 H 134.58606666425766 81.27575753610114 149.5538316567994 H 0.0 **** 0.06
16354 H 135.57796886020967 82.70432862277394 149.17122578183353 H 0.0 **** 0.06
16355 H 134.8645490111809 82.52462516194885 150.7922107585586 H 0.0 **** 0.06
16356 C 108.56337025806673 70.00464917069039 33.7302161266046 C 0.0 **** -0.24
16357 H 109.1277534817323 70.44802931923886 32.909014662659274 H 0.0 **** 0.06
16358 H 108.07158351688517 70.7930040271548 34.29949513367802 H 0.0 **** 0.06
16359 H 109.24272906101325 69.45505706025814 34.38191799050463 H 0.0 **** 0.06
16360 H 107.81388551685333 69.32278952843669 33.32875849707091 H 0.0 **** 0.06
16361 C 162.2121723971712 14.221761826952303 84.85446465244239 C 0.0 **** -0.24
16362 H 161.3610307300043 14.311682005464164 84.17909851164022 H 0.0 **** 0.06
16363 H 163.10177214655903 14.628635002083321 84.37292990810282 H 0.0 **** 0.06
16364 H 162.37698180722967 13.171330538505138 85.09325354929656 H 0.0 **** 0.06
16365 H 162.00820445416846 14.775919654134931 85.76988604522825 H 0.0 **** 0.06
16366 C 163.84674048331306 85.42642017953608 36.0091224840356 C 0.0 **** -0.24
16367 H 163.11993073277034 86.22053434375744 36.18198220695996 H 0.0 **** 0.06
16368 H 163.33342780572153 84.46512344889305 35.97864483508286 H 0.0 **** 0.06
16369 H 164.57893392728693 85.42244749793952 36.81731565206388 H 0.0 **** 0.06
16370 H 164.3540328251923 85.5988820307083 35.0602465402624 H 0.0 **** 0.06
16371 C 41.37838984664205 33.579905721307455 130.82032044891648 C 0.0 **** -0.24
16372 H 41.41452697591795 32.52269067802763 131.08093820052275 H 0.0 **** 0.06
16373 H 41.21128851976911 33.68379743232583 129.7479353215585 H 0.0 **** 0.06
16374 H 42.32258829429546 34.052336345549975 131.08937388877115 H 0.0 **** 0.06
16375 H 40.564758716752124 34.060056292200386 131.36357452073653 H 0.0 **** 0.06
16376 C 114.99886532178405 30.059044937843908 145.5489330218337 C 0.0 **** -0.24
16377 H 115.5380226609301 30.830277443431214 144.9989794179475 H 0.0 **** 0.06
16378 H 115.29445883021921 29.07663480617552 145.1803288932982 H 0.0 **** 0.06
16379 H 113.92659632514875 30.193882302376878 145.40610698896205 H 0.0 **** 0.06
16380 H 115.237329671006 30.135125467489658 146.61012372622127 H 0.0 **** 0.06
16381 C 17.025955935161207 80.62014244921674 157.25149853378377 C 0.0 **** -0.24
16382 H 17.20465011863525 81.67877674686791 157.06412194038998 H 0.0 **** 0.06
16383 H 16.315694196962923 80.51179035480699 158.0710894484492 H 0.0 **** 0.06
16384 H 17.966175473863906 80.13597436919389 157.51747542058047 H 0.0 **** 0.06
16385 H 16.61960749936913 80.15594415755474 156.35346064429342 H 0.0 **** 0.06
16386 C 20.917388933261066 33.208438268674115 119.76837878125363 C 0.0 **** -0.24
16387 H 19.928627987856714 33.53871472443899 120.08649894069723 H 0.0 **** 0.06
16388 H 21.07617407805924 33.48954402014641 118.72664942270205 H 0.0 **** 0.06
16389 H 20.98864236870412 32.12572637928645 119.8680385745458 H 0.0 **** 0.06
16390 H 21.676304885050087 33.6807176987636 120.39208215657831 H 0.0 **** 0.06
16391 C 112.85657418204516 80.32285949882387 74.67943136624747 C 0.0 **** -0.24
16392 H 113.33463164726095 80.42043613153814 73.70524708307356 H 0.0 **** 0.06
16393 H 113.3129168948989 81.02275490862644 75.38020590850739 H 0.0 **** 0.06
16394 H 112.98565218932188 79.30445611629443 75.0468447886607 H 0.0 **** 0.06
16395 H 111.79309599669887 80.54379083883668 74.58542768474818 H 0.0 **** 0.06
16396 C 148.08263806135045 36.33062476982042 137.6151248657382 C 0.0 **** -0.24
16397 H 147.40424340352047 37.17948192914935 137.5328243134719 H 0.0 **** 0.06
16398 H 148.82150113146338 36.531194276288545 138.39202284283596 H 0.0 **** 0.06
16399 H 148.58985160737592 36.177206053693 136.66284114301095 H 0.0 **** 0.06
16400 H 147.515760455904 35.436365499430906 137.87432618998366 H 0.0 **** 0.06
16401 C 140.70322910369364 40.861733086772006 107.15002684647294 C 0.0 **** -0.24
16402 H 140.91435167066703 40.24741377043023 108.0258917060091 H 0.0 **** 0.06
16403 H 140.92302495608942 41.9052062857844 107.37738707124589 H 0.0 **** 0.06
16404 H 139.65147012295108 40.76189504151341 106.88151688273658 H 0.0 **** 0.06
16405 H 141.32426857253958 40.53138884434668 106.3170155247949 H 0.0 **** 0.06
16406 C 20.7149390015544 88.3322924650335 5.961948400034714 C 0.0 **** -0.24
16407 H 21.569044304258057 87.89685693304796 6.480661438325313 H 0.0 **** 0.06
16408 H 20.958931301598398 89.34696012968084 5.649230574228682 H 0.0 **** 0.06
16409 H 19.85587521743838 88.35464074623769 6.6322402358735815 H 0.0 **** 0.06
16410 H 20.47596384711221 87.72899042895295 5.085480632983888 H 0.0 **** 0.06
16411 C 16.7158958038371 93.62684251990339 97.26388863575826 C 0.0 **** -0.24
16412 H 16.05031176939508 94.35934602974109 97.7201064290291 H 0.0 **** 0.06
16413 H 17.75045994305094 93.94326665355848 97.39685477882335 H 0.0 **** 0.06
16414 H 16.493071098712505 93.54747190501908 96.19945326166652 H 0.0 **** 0.06
16415 H 16.56911266756657 92.65657817113436 97.73946514712787 H 0.0 **** 0.06
16416 C 58.41404580861972 122.15828406526936 35.62431976733728 C 0.0 **** -0.24
16417 H 57.43047558978758 122.62088878946403 35.705471944830975 H 0.0 **** 0.06
16418 H 59.16162825078489 122.81422656915117 36.072498483815195 H 0.0 **** 0.06
16419 H 58.654292937522285 121.99745121869361 34.57344094807331 H 0.0 **** 0.06
16420 H 58.40890990858412 121.2015041900174 36.146466372752116 H 0.0 **** 0.06
16421 C 18.300267966399247 47.40066827378939 34.753445439581526 C 0.0 **** -0.24
16422 H 17.978532432102952 47.08706125697279 33.76005675118131 H 0.0 **** 0.06
16423 H 18.960767606446268 48.26354956799379 34.665012992143375 H 0.0 **** 0.06
16424 H 18.833860427340937 46.582836499876095 35.237588451882885 H 0.0 **** 0.06
16425 H 17.428248151918893 47.669516514052276 35.34978113178289 H 0.0 **** 0.06
16426 C 131.71244900213955 46.823944432477674 125.84515401198064 C 0.0 **** -0.24
16427 H 132.12871888001726 46.81491413541437 124.83765858465023 H 0.0 **** 0.06
16428 H 132.42805505012055 46.37963602969609 126.53809070167335 H 0.0 **** 0.06
16429 H 130.7859930839577 46.24918587212426 125.859549690758 H 0.0 **** 0.06
16430 H 131.50691666088946 47.85246269829781 126.14336508539981 H 0.0 **** 0.06
16431 C 79.9442438320543 162.0789969073012 100.6692655768382 C 0.0 **** -0.24
16432 H 79.28848107028097 161.51553828766012 100.00673729577986 H 0.0 **** 0.06
16433 H 80.78756556275601 161.45459498960804 100.96425182782426 H 0.0 **** 0.06
16434 H 79.38879158150519 162.38332899067768 101.5571422594968 H 0.0 **** 0.06
16435 H 80.31068594714486 162.96439441566406 100.14956410583983 H 0.0 **** 0.06
16436 C 100.5429943133428 72.42497636032758 68.71002772484081 C 0.0 **** -0.24
16437 H 101.51734735055115 71.95318140130415 68.58492038421322 H 0.0 **** 0.06
16438 H 100.62322548129978 73.23874451323583 69.42983221282165 H 0.0 **** 0.06
16439 H 99.82681111777413 71.68739670486998 69.07186202484354 H 0.0 **** 0.06
16440 H 100.20512386723695 72.8190979148169 67.7516217853065 H 0.0 **** 0.06
16441 C 103.97151761684543 76.76647880116059 7.383046539489328 C 0.0 **** -0.24
16442 H 103.67913909095466 76.96416645810922 6.351958491894521 H 0.0 **** 0.06
16443 H 103.64075037862062 75.76802229969675 7.6687803841998345 H 0.0 **** 0.06
16444 H 103.51120221263753 77.50461656169725 8.039157456533928 H 0.0 **** 0.06
16445 H 105.0565080562206 76.828164660351 7.470960156268916 H 0.0 **** 0.06
16446 C 151.70394883249833 31.455671852267656 3.3478145392817353 C 0.0 **** -0.24
16447 H 152.54027530687534 30.783406029802848 3.5394284143762746 H 0.0 **** 0.06
16448 H 151.61462301955623 32.16734129212253 4.169083506062144 H 0.0 **** 0.06
16449 H 150.7837935768627 30.876522272471078 3.266769671661656 H 0.0 **** 0.06
16450 H 151.87783378373035 31.994840116437686 2.4163410801661627 H 0.0 **** 0.06
16451 C 68.63229876033 100.82789153112074 19.548723976191297 C 0.0 **** -0.24
16452 H 69.64218164114938 100.4377875040368 19.41852941011973 H 0.0 **** 0.06
16453 H 68.42992885993233 100.9611786072636 20.611689252227222 H 0.0 **** 0.06
16454 H 67.91378159718276 100.12582323982312 19.126829013704423 H 0.0 **** 0.06
16455 H 68.54542652187419 101.7870739784361 19.03848243830322 H 0.0 **** 0.06
16456 C 114.40592831602402 146.08233792453714 122.17907177966046 C 0.0 **** -0.24
16457 H 114.05913681225519 146.48242905404197 123.1312970141453 H 0.0 **** 0.06
16458 H 113.56192677785339 145.65660615584608 121.63548914869708 H 0.0 **** 0.06
16459 H 115.15091901605498 145.3074390335666 122.3593458687208 H 0.0 **** 0.06
16460 H 114.85112105615326 146.88416049837284 121.58916399254002 H 0.0 **** 0.06
16461 C 74.9230275594748 66.07964708076469 46.48728869985631 C 0.0 **** -0.24
16462 H 74.07926554319039 65.48292370188268 46.139868103063776 H 0.0 **** 0.06
16463 H 75.56446667233223 66.3276675785664 45.64160324811081 H 0.0 **** 0.06
16464 H 75.49305414756873 65.5088530331192 47.220700619427234 H 0.0 **** 0.06
16465 H 74.55462327613475 66.9970795070129 46.94586606626534 H 0.0 **** 0.06
16466 C 99.33524485572283 32.453062430741014 35.78313203353639 C 0.0 **** -0.24
16467 H 98.43504964588945 32.374337493360116 35.1730638643658 H 0.0 **** 0.06
16468 H 99.53682114215891 33.50257444829708 35.99993779684026 H 0.0 **** 0.06
16469 H 100.1791822152554 32.024772877903686 35.242372404315134 H 0.0 **** 0.06
16470 H 99.18930981991517 31.910016849816017 36.716588851814876 H 0.0 **** 0.06
16471 C 154.42781896938115 113.38123504234312 126.98098878992863 C 0.0 **** -0.24
16472 H 153.79121102682794 112.5489985046841 126.68184361185078 H 0.0 **** 0.06
16473 H 155.4724596559141 113.11436455368502 126.82335585521793 H 0.0 **** 0.06
16474 H 154.2645446974075 113.60225757057216 128.03539227819354 H 0.0 **** 0.06
16475 H 154.18228057706241 114.25869419783061 126.38338985059013 H 0.0 **** 0.06
16476 C 152.63967870500824 30.11056219008418 156.03672895890298 C 0.0 **** -0.24
16477 H 152.38316887099478 31.096798870853632 156.42394738284153 H 0.0 **** 0.06
16478 H 153.72465919944756 30.011871868563787 155.98643214147944 H 0.0 **** 0.06
16479 H 152.21691962567405 29.99083141128048 155.03911105005992 H 0.0 **** 0.06
16480 H 152.23443190508158 29.344691596111403 156.69739182744698 H 0.0 **** 0.06
16481 C 48.22389042492638 37.69114508674656 26.733231979398134 C 0.0 **** -0.24
16482 H 47.63026936678003 37.156720508744684 27.47318300664712 H 0.0 **** 0.06
16483 H 48.548086722913965 38.64632547661712 27.147679080903863 H 0.0 **** 0.06
16484 H 47.620818858018 37.86745146157652 25.84260471200143 H 0.0 **** 0.06
16485 H 49.09713805070871 37.09475221727753 26.468467327041353 H 0.0 **** 0.06
16486 C 164.26350302884254 126.3129360831038 123.35233789620304 C 0.0 **** -0.24
16487 H 164.99323812042917 126.76302581508529 122.67909416527277 H 0.0 **** 0.06
16488 H 163.27034128263327 126.38215646818949 122.90931030052252 H 0.0 **** 0.06
16489 H 164.2746092528283 126.84103976738095 124.30509195569772 H 0.0 **** 0.06
16490 H 164.51696592933254 125.26464716484722 123.5141437099359 H 0.0 **** 0.06
16491 C 130.76009685073444 4.725665237071439 99.47558724872937 C 0.0 **** -0.24
16492 H 130.86842061935099 3.7875735429832957 98.93169286117399 H 0.0 **** 0.06
16493 H 131.71023155536733 5.260230079641701 99.47082601685901 H 0.0 **** 0.06
16494 H 130.4652099827949 4.516911602375899 100.5046231459695 H 0.0 **** 0.06
16495 H 129.99605930646027 5.3370923043314065 98.99544064783578 H 0.0 **** 0.06
16496 C 117.57174290290129 57.56564321528646 133.63266447390006 C 0.0 **** -0.24
16497 H 118.48595387933943 58.12144716994129 133.84037685281356 H 0.0 **** 0.06
16498 H 117.76331770280444 56.830009314498625 132.85139368283322 H 0.0 **** 0.06
16499 H 116.79553849017407 58.25505858594232 133.3013831349885 H 0.0 **** 0.06
16500 H 117.24286349104636 57.05669072524262 134.53855622949806 H 0.0 **** 0.06
16501 C 36.05661458910187 154.5724985326055 89.18408341814859 C 0.0 **** -0.24
16502 H 36.29930837494523 153.7369052172806 88.5275388846074 H 0.0 **** 0.06
16503 H 36.78003289599036 155.3742076626292 89.03486339369775 H 0.0 **** 0.06
16504 H 36.09068878675858 154.2404956285157 90.22210905732258 H 0.0 **** 0.06
16505 H 35.05579539969857 154.93733008639515 88.95251899993738 H 0.0 **** 0.06
16506 C 117.42499221948526 149.70153610921744 36.75571617638104 C 0.0 **** -0.24
16507 H 118.48855625894657 149.54910814108072 36.56972032023373 H 0.0 **** 0.06
16508 H 116.94360184863746 150.05031402424783 35.84168527847527 H 0.0 **** 0.06
16509 H 117.29794382682417 150.44725605388078 37.54044520815205 H 0.0 **** 0.06
16510 H 116.9717138884738 148.7616430643125 37.0700917357575 H 0.0 **** 0.06
16511 C 172.58958072456483 147.83059665703956 115.82598393677605 C 0.0 **** -0.24
16512 H 172.6705561590975 148.15093548848327 114.78732894419298 H 0.0 **** 0.06
16513 H 172.70804604578655 148.69220505551033 116.4825691206959 H 0.0 **** 0.06
16514 H 173.36767035047535 147.09832176421062 116.0419566335587 H 0.0 **** 0.06
16515 H 171.61074919481166 147.37867112136416 115.99058760928673 H 0.0 **** 0.06
16516 C 45.81067792629831 159.20621284450755 61.80672705442362 C 0.0 **** -0.24
16517 H 45.038304926083086 159.77220482143912 62.328661197466886 H 0.0 **** 0.06
16518 H 46.513255266978135 158.7966395518066 62.53215173654087 H 0.0 **** 0.06
16519 H 46.340470038490096 159.86561848192872 61.11913799618412 H 0.0 **** 0.06
16520 H 45.34887014666056 158.39296710033858 61.246692123306616 H 0.0 **** 0.06
16521 C 91.50503495145996 133.95487316499128 87.59146344801128 C 0.0 **** -0.24
16522 H 92.57623829098245 133.8281561662757 87.4347458918198 H 0.0 **** 0.06
16523 H 90.99007217371333 133.02483243096304 87.35071304576809 H 0.0 **** 0.06
16524 H 91.13578197288592 134.75269133125036 86.94569596199928 H 0.0 **** 0.06
16525 H 91.31915847797043 134.21466205014517 88.63295411950286 H 0.0 **** 0.06
16526 C 172.6558218279955 168.94583176109396 115.52244514209036 C 0.0 **** -0.24
16527 H 171.83839990937508 168.30449084847305 115.19498615636334 H 0.0 **** 0.06
16528 H 172.29999598391055 169.61717096938986 116.30340275680794 H 0.0 **** 0.06
16529 H 173.01958951620284 169.53075609980988 114.67726895270164 H 0.0 **** 0.06
16530 H 173.4654237353476 168.32972391691547 115.91336080329654 H 0.0 **** 0.06
16531 C 47.12200668595227 138.62428634036146 47.48789664685802 C 0.0 **** -0.24
16532 H 47.701069695650915 138.04414330957547 48.20524052104315 H 0.0 **** 0.06
16533 H 47.67145235146724 138.69075201351725 46.54790940773 H 0.0 **** 0.06
16534 H 46.95439910708325 139.6270979504261 47.882316210797796 H 0.0 **** 0.06
16535 H 46.162952939255234 138.13728032428804 47.31410593937136 H 0.0 **** 0.06
16536 C 109.48311164120437 158.7434550371899 128.3408919842046 C 0.0 **** -0.24
16537 H 110.0047964990483 158.86617739838564 129.28918480328744 H 0.0 **** 0.06
16538 H 109.14957158588373 159.71834394427833 127.98191858288601 H 0.0 **** 0.06
16539 H 108.61893311364625 158.09377554579893 128.48285762173646 H 0.0 **** 0.06
16540 H 110.15616317421248 158.29774596260862 127.61001499286607 H 0.0 **** 0.06
16541 C 59.00341193037448 152.18034676025061 84.13315118397789 C 0.0 **** -0.24
16542 H 59.36150329814009 153.19443445302545 84.31249422755316 H 0.0 **** 0.06
16543 H 59.82918850451115 151.47829904529794 84.24741505867591 H 0.0 **** 0.06
16544 H 58.60372064704525 152.10950694002685 83.12187537357809 H 0.0 **** 0.06
16545 H 58.21970202816104 151.94004940612996 84.85180350899228 H 0.0 **** 0.06
16546 C 97.07094912361032 56.04227364883343 3.731954594234736 C 0.0 **** -0.24
16547 H 97.31023723858061 55.112928899486775 4.248506344325278 H 0.0 **** 0.06
16548 H 97.45974005518082 56.88612993891944 4.302223274915576 H 0.0 **** 0.06
16549 H 95.98882714096379 56.135244727822226 3.6358733816491906 H 0.0 **** 0.06
16550 H 97.52368119901922 56.03316143253605 2.740424048736685 H 0.0 **** 0.06
16551 C 128.02024402054252 150.4099935801934 4.023499676738659 C 0.0 **** -0.24
16552 H 128.42406546315596 151.32561131493222 4.455765331547241 H 0.0 **** 0.06
16553 H 128.47286582026732 150.24021985215717 3.04692988790125 H 0.0 **** 0.06
16554 H 126.94052078027738 150.50582664899497 3.91364566865186 H 0.0 **** 0.06
16555 H 128.24551897190997 149.56978910678572 4.681100507717574 H 0.0 **** 0.06
16556 C 57.13683244836507 159.9464577928234 0.07254247017957027 C 0.0 **** -0.24
16557 H 56.53281783466093 159.971500815318 0.9791429105278553 H 0.0 **** 0.06
16558 H 57.03081874218789 160.89121409823392 -0.46084182663338424 H 0.0 **** 0.06
16559 H 56.80052347426961 159.12864467699336 -0.5655446663178338 H 0.0 **** 0.06
16560 H 58.18312127769789 159.7935771819872 0.3378581315195959 H 0.0 **** 0.06
16561 C 112.60959114666463 32.74508206243007 64.1539064451224 C 0.0 **** -0.24
16562 H 112.22079416838031 31.73273552623354 64.04262035674344 H 0.0 **** 0.06
16563 H 112.49053989929553 33.067985098329984 65.18873524674069 H 0.0 **** 0.06
16564 H 112.060570367915 33.418841886454175 63.497294668868875 H 0.0 **** 0.06
16565 H 113.66570052672569 32.758749379381186 63.887573342232315 H 0.0 **** 0.06
16566 C 9.65058321015107 26.72073240841364 79.60721290473354 C 0.0 **** -0.24
16567 H 10.22174092779153 27.641478976509518 79.49351694627451 H 0.0 **** 0.06
16568 H 9.081812630878744 26.75759271870863 80.53647526739007 H 0.0 **** 0.06
16569 H 10.332651284706657 25.871170834763753 79.63202106618657 H 0.0 **** 0.06
16570 H 8.965698453945151 26.61221243040739 78.7655772943878 H 0.0 **** 0.06
16571 C 37.32059164618562 109.52865954836139 31.72513495545857 C 0.0 **** -0.24
16572 H 37.73126163753277 109.1653356999432 32.66747997730421 H 0.0 **** 0.06
16573 H 36.80985508597044 110.47656375673279 31.893835741870035 H 0.0 **** 0.06
16574 H 36.612826223841694 108.7984928597993 31.332660881015343 H 0.0 **** 0.06
16575 H 38.12938877911219 109.67308479419236 31.00895500167408 H 0.0 **** 0.06
16576 C 168.11260579781435 150.82891558175913 6.071651092315932 C 0.0 **** -0.24
16577 H 167.34306620483682 150.1036248515066 5.810085964643349 H 0.0 **** 0.06
16578 H 169.02337194434494 150.30456469228392 6.360731277332377 H 0.0 **** 0.06
16579 H 167.76591010804202 151.44224650406164 6.903026728388966 H 0.0 **** 0.06
16580 H 168.31881644448612 151.4661105736268 5.210845111649519 H 0.0 **** 0.06
16581 C 130.52910161770913 90.0152532417609 160.87747716586387 C 0.0 **** -0.24
16582 H 130.3950841099295 89.07080872195701 160.35058910742165 H 0.0 **** 0.06
16583 H 130.95968157971743 89.82479901690718 161.8606390419079 H 0.0 **** 0.06
16584 H 129.5624658968237 90.50664283756628 160.99324359156125 H 0.0 **** 0.06
16585 H 131.197450890471 90.65890290501673 160.30534645406672 H 0.0 **** 0.06
16586 C 14.951429510604441 29.637537277690853 154.97878687085966 C 0.0 **** -0.24
16587 H 15.754103657195486 29.547324279423947 154.24657513434818 H 0.0 **** 0.06
16588 H 15.239166201129535 29.128776649727854 155.89830053490195 H 0.0 **** 0.06
16589 H 14.043478074977799 29.18447850496355 154.58010261288666 H 0.0 **** 0.06
16590 H 14.76941907021859 30.692642858948716 155.18808248725335 H 0.0 **** 0.06
16591 C 133.61815464844636 112.97055655253163 161.95040241950886 C 0.0 **** -0.24
16592 H 134.20517419747245 113.2468844220426 161.07547779633506 H 0.0 **** 0.06
16593 H 133.99573050344557 112.03481136818962 162.36122181617196 H 0.0 **** 0.06
16594 H 132.57386805328045 112.84648180352491 161.66250457527718 H 0.0 **** 0.06
16595 H 133.69633507984042 113.75586053647635 162.70306482181093 H 0.0 **** 0.06
16596 C 13.542847228521794 151.5862235753837 64.05872282508906 C 0.0 **** -0.24
16597 H 13.847083524641164 152.61424833773737 63.86343449159011 H 0.0 **** 0.06
16598 H 12.69714380138305 151.33037205812215 63.42112038268159 H 0.0 **** 0.06
16599 H 13.253012148382794 151.48597981765997 65.10441062935983 H 0.0 **** 0.06
16600 H 14.374603955592846 150.91513905333477 63.84696478890841 H 0.0 **** 0.06
16601 C 136.79192293163536 158.91479975200622 42.52334952834575 C 0.0 **** -0.24
16602 H 136.95902179659365 159.67277795558496 43.28754986283636 H 0.0 **** 0.06
16603 H 136.8400481528227 159.37698982061835 41.537009065750624 H 0.0 **** 0.06
16604 H 135.80948885173146 158.46426384259306 42.66595341665176 H 0.0 **** 0.06
16605 H 137.55988771490865 158.1448419453794 42.601734927168025 H 0.0 **** 0.06
16606 C 19.81946526813732 40.776936409871496 4.799868787628171 C 0.0 **** -0.24
16607 H 20.193388556414504 40.264877921830745 5.687116608619888 H 0.0 **** 0.06
16608 H 20.617945338519945 40.85191437939723 4.0607807659729716 H 0.0 **** 0.06
16609 H 19.48214337278887 41.77669565641882 5.073563098807661 H 0.0 **** 0.06
16610 H 18.986586608772484 40.2149043295897 4.379945933917256 H 0.0 **** 0.06
16611 C 16.630549614403122 104.61962525771796 40.802266630082926 C 0.0 **** -0.24
16612 H 17.214417762057195 104.00893059209042 40.113348488005585 H 0.0 **** 0.06
16613 H 16.339891936665765 105.5466863238594 40.307697028523336 H 0.0 **** 0.06
16614 H 17.231194588837212 104.84961411986814 41.682344425445024 H 0.0 **** 0.06
16615 H 15.737453613046398 104.07282453999298 41.10418496851514 H 0.0 **** 0.06
16616 C 15.535085157122921 37.79195702320487 149.48019498112055 C 0.0 **** -0.24
16617 H 16.566387092696147 37.92990222344176 149.15747282973317 H 0.0 **** 0.06
16618 H 15.503238607449703 37.07178001833853 150.29914621699297 H 0.0 **** 0.06
16619 H 14.939249488605185 37.41971929170168 148.64580289130024 H 0.0 **** 0.06
16620 H 15.130029092715858 38.74547968416459 149.81815694310913 H 0.0 **** 0.06
16621 C 52.26405500244144 167.82435096285326 110.77625201660123 C 0.0 **** -0.24
16622 H 52.50413573708009 168.76743288616373 110.28638480873266 H 0.0 **** 0.06
16623 H 52.7522172831588 167.78632783074696 111.75027615615173 H 0.0 **** 0.06
16624 H 52.614664800043286 166.99489718256305 110.16117282408322 H 0.0 **** 0.06
16625 H 51.1842539510711 167.7477454486921 110.90749033602228 H 0.0 **** 0.06
16626 C 96.1325559565062 113.46636696850607 5.337612973100306 C 0.0 **** -0.24
16627 H 96.58415296228472 112.4819634967252 5.45726292878021 H 0.0 **** 0.06
16628 H 95.32913077859197 113.41021437328595 4.602172224905416 H 0.0 **** 0.06
16629 H 96.88892870164523 114.17357445939996 4.996574804077511 H 0.0 **** 0.06
16630 H 95.72848817154144 113.79948137701547 6.293131249868225 H 0.0 **** 0.06
16631 C 60.11629916846188 63.65152765794261 167.1160287675581 C 0.0 **** -0.24
16632 H 61.05119549550815 63.926418697862744 167.60452847316284 H 0.0 **** 0.06
16633 H 60.24066459649987 63.707907585488925 166.0351024520212 H 0.0 **** 0.06
16634 H 59.328367943976815 64.33829464646163 167.4281597087868 H 0.0 **** 0.06
16635 H 59.84334003934758 62.634655607401726 167.39855794980687 H 0.0 **** 0.06
16636 C 68.76233674197283 75.28905093142586 153.0124146837318 C 0.0 **** -0.24
16637 H 68.65751313838575 76.02856670536929 153.80666567309274 H 0.0 **** 0.06
16638 H 69.81477494269393 75.19242245530599 152.74282054554112 H 0.0 **** 0.06
16639 H 68.19160765078402 75.60897823366 152.14160531133246 H 0.0 **** 0.06
16640 H 68.3870443932525 74.32648443352258 153.36011653870065 H 0.0 **** 0.06
16641 C 31.976240608471755 62.162546678355795 166.46404399333113 C 0.0 **** -0.24
16642 H 32.741385048104746 61.65780874143269 167.0553821676432 H 0.0 **** 0.06
16643 H 32.15267809319414 61.973249531967525 165.4053204304605 H 0.0 **** 0.06
16644 H 32.01937956929203 63.23498549654812 166.65502097165114 H 0.0 **** 0.06
16645 H 30.993499787155713 61.783577003977825 166.74305228180714 H 0.0 **** 0.06
16646 C 138.2865632848691 22.756060670508347 8.49916982780396 C 0.0 **** -0.24
16647 H 139.12067629099406 23.161132267072176 7.926449414119986 H 0.0 **** 0.06
16648 H 137.75107236900703 23.570209481242657 8.987269582384208 H 0.0 **** 0.06
16649 H 138.66640788893554 22.06624337803484 9.254231033726882 H 0.0 **** 0.06
16650 H 137.61025191989916 22.224672511831194 7.829373025999352 H 0.0 **** 0.06
16651 C 27.99941933215942 43.26778049920074 151.33547762833996 C 0.0 **** -0.24
16652 H 27.11544085399234 43.89791523440276 151.24548091549661 H 0.0 **** 0.06
16653 H 28.618287708985278 43.38144283111943 150.44488174987458 H 0.0 **** 0.06
16654 H 27.694877868733045 42.22671968364648 151.43558765645838 H 0.0 **** 0.06
16655 H 28.57011949995774 43.56574082105185 152.21531577472263 H 0.0 **** 0.06
16656 C 115.6113178673817 99.91313315814782 116.50397465825279 C 0.0 **** -0.24
16657 H 114.863072134476 99.49457728355551 117.1774369825797 H 0.0 **** 0.06
16658 H 116.2612967349348 99.1162756605321 116.14324100201691 H 0.0 **** 0.06
16659 H 116.2048531325419 100.65440095871301 117.0382349848353 H 0.0 **** 0.06
16660 H 115.11302471224823 100.38671556809399 115.65822421570681 H 0.0 **** 0.06
16661 C 91.13719015844867 79.94403716926868 44.93800348751563 C 0.0 **** -0.24
16662 H 90.25523959919752 80.29876613842798 44.404001825779986 H 0.0 **** 0.06
16663 H 90.98206153308604 80.05888317122921 46.01087472683683 H 0.0 **** 0.06
16664 H 92.00590085480854 80.52739125985757 44.63097588708102 H 0.0 **** 0.06
16665 H 91.30433169409127 78.89309877611474 44.70403263617537 H 0.0 **** 0.06
16666 C 149.51049092554797 46.798102886209904 155.10126905335267 C 0.0 **** -0.24
16667 H 150.35546428745403 46.48694693525144 155.7143335982365 H 0.0 **** 0.06
16668 H 149.7989548718299 46.78014364157846 154.04961547848214 H 0.0 **** 0.06
16669 H 149.211849994058 47.80875812909984 155.3791336807584 H 0.0 **** 0.06
16670 H 148.67547926633148 46.11466103237447 155.2608372012047 H 0.0 **** 0.06
16671 C 53.3696706671214 77.48055981628805 168.6883901037926 C 0.0 **** -0.24
16672 H 54.21076807390483 77.78001869282025 168.0619471622153 H 0.0 **** 0.06
16673 H 52.580207832043044 78.23072068928106 168.61866666053652 H 0.0 **** 0.06
16674 H 53.70046469930884 77.39594294932066 169.7232246129618 H 0.0 **** 0.06
16675 H 52.98802336198705 76.51812982632796 168.34839154820355 H 0.0 **** 0.06
16676 C 62.66946894491903 109.47954143571309 86.23199075661525 C 0.0 **** -0.24
16677 H 62.53230773168036 109.4125129396478 85.15327942618218 H 0.0 **** 0.06
16678 H 61.69710164478575 109.55876262887557 86.71798460157738 H 0.0 **** 0.06
16679 H 63.26608131550499 110.36096753306646 86.4681515364376 H 0.0 **** 0.06
16680 H 63.18350435611988 108.58686460080031 86.58947484257382 H 0.0 **** 0.06
16681 C 12.64321481770071 121.74448333817253 60.465785425036586 C 0.0 **** -0.24
16682 H 13.350729224554556 122.38781477133048 59.94346541491211 H 0.0 **** 0.06
16683 H 12.530077149953343 120.8082927714591 59.91787364940524 H 0.0 **** 0.06
16684 H 11.677649816320326 122.24603923755987 60.53300968433075 H 0.0 **** 0.06
16685 H 13.014819722108513 121.53539410502339 61.46961295556457 H 0.0 **** 0.06
16686 C 117.27658919622303 27.353103046221747 12.94868613860956 C 0.0 **** -0.24
16687 H 116.69838899535645 26.86864103551713 12.161536669026503 H 0.0 **** 0.06
16688 H 117.21322117161967 28.43507363631005 12.832654583910227 H 0.0 **** 0.06
16689 H 118.31890152374126 27.0408888980636 12.87756971090002 H 0.0 **** 0.06
16690 H 116.87807740102099 27.067654000588504 13.921253525867286 H 0.0 **** 0.06
16691 C 23.896102478114216 72.76732940318153 29.645109234538268 C 0.0 **** -0.24
16692 H 24.501103790498178 71.8623949160981 29.69753212411601 H 0.0 **** 0.06
16693 H 22.90508831663061 72.56573210145075 30.055034495698237 H 0.0 **** 0.06
16694 H 23.801753994771047 73.08157595630504 28.605762494156977 H 0.0 **** 0.06
16695 H 24.374215805044912 73.55790704962241 30.221932229116476 H 0.0 **** 0.06
16696 C 120.32136018159164 116.31177619842816 158.90033383063195 C 0.0 **** -0.24
16697 H 119.64642110366174 115.74365994902615 159.5406207646226 H 0.0 **** 0.06
16698 H 121.0849408654573 115.64572930356292 158.49781640912929 H 0.0 **** 0.06
16699 H 120.79831433806297 117.10015084783444 159.4839024820071 H 0.0 **** 0.06
16700 H 119.7572785374127 116.75590424282149 158.08098327880933 H 0.0 **** 0.06
16701 C 147.21578885778757 48.20875653948089 152.0514486390087 C 0.0 **** -0.24
16702 H 147.85655952270253 48.835374068383445 152.67178855489144 H 0.0 **** 0.06
16703 H 147.3018130807365 48.52021001519532 151.01003240413647 H 0.0 **** 0.06
16704 H 146.18091970358063 48.31231603468882 152.37731278714566 H 0.0 **** 0.06
16705 H 147.52366015257047 47.16716281779982 152.14568230189207 H 0.0 **** 0.06
16706 C 48.59409623824274 123.95562830307588 157.91497737155908 C 0.0 **** -0.24
16707 H 48.591411021140516 124.65529471131651 157.07858038467145 H 0.0 **** 0.06
16708 H 48.9867552130421 122.99440057058914 157.58172162673392 H 0.0 **** 0.06
16709 H 47.5767499685856 123.8245309513137 158.28215880662967 H 0.0 **** 0.06
16710 H 49.2225201165179 124.34787723426828 158.71432984706064 H 0.0 **** 0.06
16711 C 84.45793801573097 155.50439786241805 15.490527029492654 C 0.0 **** -0.24
16712 H 84.61607385555635 155.96552865419113 14.515680051498435 H 0.0 **** 0.06
16713 H 85.2764726050188 154.81607200674352 15.703254211280466 H 0.0 **** 0.06
16714 H 83.51537494962622 154.95862541371088 15.485897157413234 H 0.0 **** 0.06
16715 H 84.42584457296732 156.2787040875882 16.256886644555408 H 0.0 **** 0.06
16716 C 69.30930628280981 170.25080179732402 62.36308900354217 C 0.0 **** -0.24
16717 H 69.7946266224944 170.73197616321193 61.51375833084245 H 0.0 **** 0.06
16718 H 68.85329686501046 171.01051512497406 62.99858115897514 H 0.0 **** 0.06
16719 H 70.05015817358279 169.6935816778638 62.93633275236293 H 0.0 **** 0.06
16720 H 68.53938947540897 169.56843256895684 62.003179950895955 H 0.0 **** 0.06
16721 C 38.780819970995736 94.2285092586971 155.84832410469375 C 0.0 **** -0.24
16722 H 39.27664404692433 94.90358482094695 155.1499440580576 H 0.0 **** 0.06
16723 H 37.72851047261372 94.50064418575624 155.93059492763194 H 0.0 **** 0.06
16724 H 39.255048175948275 94.30431523168599 156.8264141959778 H 0.0 **** 0.06
16725 H 38.86431142905144 93.20451377853703 155.4831000076381 H 0.0 **** 0.06
16726 C 86.38264574722422 104.08601944785195 53.31974639437621 C 0.0 **** -0.24
16727 H 86.86021759410522 103.13902229780484 53.56870558613291 H 0.0 **** 0.06
16728 H 85.44721613348406 104.17745117890797 53.87320814207236 H 0.0 **** 0.06
16729 H 86.17719915031552 104.11926684303032 52.25029257956294 H 0.0 **** 0.06
16730 H 87.04558176486347 104.90857307916991 53.58918945185103 H 0.0 **** 0.06
16731 C 128.0106337236037 94.55070019630088 169.7799700093272 C 0.0 **** -0.24
16732 H 128.46025927057502 93.9051849500411 169.02564308241588 H 0.0 **** 0.06
16733 H 126.93261383155482 94.5957747648157 169.6234177930797 H 0.0 **** 0.06
16734 H 128.4328449817993 95.55240921475033 169.6991251944763 H 0.0 **** 0.06
16735 H 128.21821630457157 94.14811873048541 170.77225719950317 H 0.0 **** 0.06
16736 C 163.35652038913534 109.01383167352674 14.583959820973334 C 0.0 **** -0.24
16737 H 164.23065375838883 109.16798799702622 13.952133233142227 H 0.0 **** 0.06
16738 H 163.61071775652877 109.247510034827 15.618451649358803 H 0.0 **** 0.06
16739 H 163.0356912363847 107.97456949161855 14.514967449117833 H 0.0 **** 0.06
16740 H 162.54809781177164 109.66609624698273 14.252396748902974 H 0.0 **** 0.06
16741 C 79.62777341997364 100.66804959816457 64.26230589973136 C 0.0 **** -0.24
16742 H 80.0130541781082 99.87543834218852 63.62101554861647 H 0.0 **** 0.06
16743 H 79.49147222930074 100.2826280637733 65.2734411285321 H 0.0 **** 0.06
16744 H 78.67160497968176 101.0165335606803 63.8740534300438 H 0.0 **** 0.06
16745 H 80.3359934527123 101.49575780469388 64.28145441146573 H 0.0 **** 0.06
16746 C 163.96584488022137 147.22232865966987 93.03513526731518 C 0.0 **** -0.24
16747 H 164.2291940040277 146.66967876456079 92.13339666218081 H 0.0 **** 0.06
16748 H 164.3884014417462 148.22616331559453 92.98081997277342 H 0.0 **** 0.06
16749 H 164.36479937594802 146.70602326281175 93.90806952755077 H 0.0 **** 0.06
16750 H 162.88060567852125 147.28899315995636 93.11668233999796 H 0.0 **** 0.06
16751 C 106.6141926541955 162.00768069507458 0.8183485389794782 C 0.0 **** -0.24
16752 H 107.21523611660257 161.66455805665066 1.6596473914115677 H 0.0 **** 0.06
16753 H 106.0332094270905 162.88026646590953 1.1188327799968647 H 0.0 **** 0.06
16754 H 105.93780150288543 161.21079517419764 0.5061823741174294 H 0.0 **** 0.06
16755 H 107.26832685965368 162.27403330879616 -0.011094572610033993 H 0.0 **** 0.06
16756 C 34.752578363180135 79.18014345767354 67.92477408529174 C 0.0 **** -0.24
16757 H 35.68323352827883 78.90326129394347 67.43082937308122 H 0.0 **** 0.06
16758 H 34.687384731308555 78.67249915971274 68.88742212962603 H 0.0 **** 0.06
16759 H 33.90899054238059 78.88507855707671 67.30113118669306 H 0.0 **** 0.06
16760 H 34.73011928206466 80.25853173645086 68.08017189780327 H 0.0 **** 0.06
16761 C 0.5241979458441932 12.051599549281406 68.10208603211017 C 0.0 **** -0.24
16762 H -0.41279892034233967 12.606103298410659 68.1502486766782 H 0.0 **** 0.06
16763 H 0.45178157676289743 11.163124975836354 68.72990766767694 H 0.0 **** 0.06
16764 H 1.3383741002171305 12.683190464284621 68.45704839909479 H 0.0 **** 0.06
16765 H 0.7171136882111213 11.753247723200332 67.07086348946015 H 0.0 **** 0.06
16766 C 159.85818706539072 113.74069519088187 14.024553062772725 C 0.0 **** -0.24
16767 H 159.19827485973371 114.05865536817396 13.217893674563157 H 0.0 **** 0.06
16768 H 159.36208204064724 113.89777656275652 14.983041180030739 H 0.0 **** 0.06
16769 H 160.77828791857937 114.32399494749069 13.991296573080206 H 0.0 **** 0.06
16770 H 160.0931977395967 112.6831330609262 13.906737555185885 H 0.0 **** 0.06
16771 C 158.89040469809822 92.24550057957168 155.8559521459625 C 0.0 **** -0.24
16772 H 158.16981153097709 92.74000296405467 156.50661491393842 H 0.0 **** 0.06
16773 H 158.97134164640414 92.79559201495664 154.91887382223382 H 0.0 **** 0.06
16774 H 158.5570306806564 91.2274004213661 155.65173399590623 H 0.0 **** 0.06
16775 H 159.86292177488406 92.21673021052061 156.3473297861875 H 0.0 **** 0.06
16776 C 132.75074516605926 168.19660482422842 113.93203007424864 C 0.0 **** -0.24
16777 H 133.51180166159412 168.19963662782365 113.15255398905657 H 0.0 **** 0.06
16778 H 132.41191242976421 169.2165953050797 114.11207997550932 H 0.0 **** 0.06
16779 H 133.17218715485416 167.78657105379773 114.84965806709715 H 0.0 **** 0.06
16780 H 131.90692046389728 167.58364913751976 113.61481501954867 H 0.0 **** 0.06
16781 C 69.74222784662683 89.90861094735074 133.0813602134856 C 0.0 **** -0.24
16782 H 70.60678222977315 89.2841604921176 132.85894956213954 H 0.0 **** 0.06
16783 H 69.42795272141093 90.429824910605 132.17581374825622 H 0.0 **** 0.06
16784 H 70.00732963876723 90.6380903519018 133.84645956298374 H 0.0 **** 0.06
16785 H 68.92500769178146 89.28326296984172 133.44287003677636 H 0.0 **** 0.06
16786 C 12.807504568756798 110.62237194358079 2.719518267022657 C 0.0 **** -0.24
16787 H 11.79889182890043 110.35147395997848 3.0314554487784022 H 0.0 **** 0.06
16788 H 13.321588902020977 109.73726130549537 2.3434017007852717 H 0.0 **** 0.06
16789 H 13.354811046142892 111.02679716548795 3.571139105171426 H 0.0 **** 0.06
16790 H 12.753514851507916 111.37451925100677 1.9316142369841813 H 0.0 **** 0.06
16791 C 12.189703747487783 124.46659069108011 172.41206801835904 C 0.0 **** -0.24
16792 H 13.073538404338365 123.97396688528335 172.00717141253 H 0.0 **** 0.06
16793 H 11.317511855781447 124.19025405115588 171.8197973506173 H 0.0 **** 0.06
16794 H 12.327631602919553 125.5476334905554 172.37480430497845 H 0.0 **** 0.06
16795 H 12.04201772021338 124.1546616934157 173.44584716044784 H 0.0 **** 0.06
16796 C 81.84210497001908 28.912282273377997 108.5811404349482 C 0.0 **** -0.24
16797 H 81.73553679588383 27.925176852441524 108.13079022709383 H 0.0 **** 0.06
16798 H 81.00513725660345 29.542238064328245 108.27618306715408 H 0.0 **** 0.06
16799 H 82.7773651510287 29.36377780514431 108.2488177173239 H 0.0 **** 0.06
16800 H 81.85013564625257 28.81804840884581 109.66678893117515 H 0.0 **** 0.06
16801 C 74.98166922043346 36.00117654773646 5.415946752112518 C 0.0 **** -0.24
16802 H 74.7584676286667 36.8551486727345 6.056266884516454 H 0.0 **** 0.06
16803 H 75.00447587777855 36.32460636883556 4.375250737776824 H 0.0 **** 0.06
16804 H 74.21145379339839 35.241375680700884 5.5444768809056555 H 0.0 **** 0.06
16805 H 75.95190872301012 35.586143552889084 5.689298379929362 H 0.0 **** 0.06
16806 C 69.10032857552396 95.16308364940187 144.64883182115628 C 0.0 **** -0.24
16807 H 69.89393650819159 95.6695914418703 145.19842758100205 H 0.0 **** 0.06
16808 H 69.28198853572121 94.08759428287414 144.65813304580027 H 0.0 **** 0.06
16809 H 69.08586902570833 95.52022126188609 143.6192208143779 H 0.0 **** 0.06
16810 H 68.1413855890894 95.37368163434826 145.12052979188454 H 0.0 **** 0.06
16811 C 91.31702749619467 166.44077494667988 1.3041924140248398 C 0.0 **** -0.24
16812 H 90.82727251299708 166.7062116111561 2.241281325693194 H 0.0 **** 0.06
16813 H 90.60982858568971 165.91963082065533 0.6601057404460562 H 0.0 **** 0.06
16814 H 92.16802526283573 165.79228118398248 1.5104272384304522 H 0.0 **** 0.06
16815 H 91.66338363989311 167.3471512174941 0.8069825196287752 H 0.0 **** 0.06
16816 C 103.60518105649743 123.20744812841991 46.69699872984344 C 0.0 **** -0.24
16817 H 103.27443572527483 124.16960065584257 47.08841696070506 H 0.0 **** 0.06
16818 H 104.18647012632744 122.68685064632774 47.45749162307155 H 0.0 **** 0.06
16819 H 104.22296253014662 123.36859047092929 45.81383545660397 H 0.0 **** 0.06
16820 H 102.7360506957026 122.60683680553424 46.4282653184556 H 0.0 **** 0.06
16821 C 161.48758641635553 30.42913797423722 81.7775468282682 C 0.0 **** -0.24
16822 H 160.68557033371997 30.70171260174743 82.46406811795993 H 0.0 **** 0.06
16823 H 161.579920447093 29.343510959363755 81.742055929874 H 0.0 **** 0.06
16824 H 162.42457749405276 30.863394998059533 82.12414559105493 H 0.0 **** 0.06
16825 H 161.25667929980358 30.80789772141739 80.78193086797768 H 0.0 **** 0.06
16826 C 2.0916751138377094 114.52326879903649 79.66575756306868 C 0.0 **** -0.24
16827 H 1.442033683952907 115.33650597837413 79.9897969060127 H 0.0 **** 0.06
16828 H 2.2172295570467284 114.56737502492331 78.5840848320132 H 0.0 **** 0.06
16829 H 1.6423180092837413 113.56844869505471 79.94092838402696 H 0.0 **** 0.06
16830 H 3.0636000712720204 114.62010927040592 80.1500333083195 H 0.0 **** 0.06
16831 C 147.78350633630822 105.29953577399206 86.53192258594804 C 0.0 **** -0.24
16832 H 148.45718642165278 106.03802134704347 86.96637440362268 H 0.0 **** 0.06
16833 H 146.8381807554307 105.77730552240831 86.2722962537158 H 0.0 **** 0.06
16834 H 147.60228002228084 104.50399754798573 87.25530779760133 H 0.0 **** 0.06
16835 H 148.23705536048524 104.87781836310893 85.63444728349704 H 0.0 **** 0.06
16836 C 105.72992130399163 168.1073206459946 39.58993205917511 C 0.0 **** -0.24
16837 H 106.39621697984677 168.59748019452326 38.880537348144685 H 0.0 **** 0.06
16838 H 106.3185580427002 167.52572100390952 40.29857498641809 H 0.0 **** 0.06
16839 H 105.05111033849303 167.44645019161268 39.051567795680484 H 0.0 **** 0.06
16840 H 105.15395580284516 168.8610636917266 40.12733820295773 H 0.0 **** 0.06
16841 C 29.86667736740523 98.82323091357196 133.6428305317283 C 0.0 **** -0.24
16842 H 30.186231885008453 99.82368564586699 133.34956708398374 H 0.0 **** 0.06
16843 H 29.071506581829112 98.89996475928777 134.3855462050742 H 0.0 **** 0.06
16844 H 30.711637873036153 98.28338122357229 134.06958950920512 H 0.0 **** 0.06
16845 H 29.49681624638248 98.28839303446352 132.76848428585475 H 0.0 **** 0.06
16846 C 80.33226260304593 167.9975095740263 74.98761947786038 C 0.0 **** -0.24
16847 H 80.49153289825533 169.06150807071526 75.1607071378487 H 0.0 **** 0.06
16848 H 81.29327692622309 167.5090523472922 74.8247753535825 H 0.0 **** 0.06
16849 H 79.70272575655243 167.86287071637582 74.10809408349695 H 0.0 **** 0.06
16850 H 79.84249645810229 167.55651805607982 75.85588717450442 H 0.0 **** 0.06
16851 C 32.441372694781805 2.393524160523498 62.66775781887965 C 0.0 **** -0.24
16852 H 32.74374125265115 1.995995615901279 61.698736401997294 H 0.0 **** 0.06
16853 H 32.58091410512276 1.6285791254995843 63.43246790073454 H 0.0 **** 0.06
16854 H 31.39173195299172 2.682375020273014 62.630627832242524 H 0.0 **** 0.06
16855 H 33.05023229479964 3.2643675619311807 62.909236436595265 H 0.0 **** 0.06
16856 C 0.2194771510689364 113.87973699393862 142.73129770279195 C 0.0 **** -0.24
16857 H 0.8363262483009137 114.4659590121145 142.04902271048857 H 0.0 **** 0.06
16858 H -0.752150066045111 114.36027178912536 142.8440143153456 H 0.0 **** 0.06
16859 H 0.7101517444013723 113.81775630328673 143.7023486833491 H 0.0 **** 0.06
16860 H 0.08479754163933251 112.87665168987019 142.32742588917503 H 0.0 **** 0.06
16861 C 149.93455285971507 71.63082464938192 170.44389336983403 C 0.0 **** -0.24
16862 H 149.04206102712988 72.04243700357267 170.913792025375 H 0.0 **** 0.06
16863 H 149.7729563664842 70.57714832320765 170.216273160692 H 0.0 **** 0.06
16864 H 150.78115563097805 71.73044299419564 171.12233724060567 H 0.0 **** 0.06
16865 H 150.14237447022074 72.17401922430926 169.52109108071352 H 0.0 **** 0.06
16866 C 122.27355469474625 15.934341008910963 106.77896995931468 C 0.0 **** -0.24
16867 H 122.09153335206798 16.655930417305086 107.57480921182992 H 0.0 **** 0.06
16868 H 122.95485995196256 15.162643627804584 107.13808484204094 H 0.0 **** 0.06
16869 H 122.71676725552246 16.44220565862352 105.92254115254377 H 0.0 **** 0.06
16870 H 121.32982511322777 15.476263236673276 106.48105814759299 H 0.0 **** 0.06
16871 C 66.10621590396408 0.9951065098052112 74.2541574166519 C 0.0 **** -0.24
16872 H 66.82540093294 0.25223061240030376 74.59923636716775 H 0.0 **** 0.06
16873 H 66.5258801044735 1.5400263873005287 73.40743696473473 H 0.0 **** 0.06
16874 H 65.88751822650157 1.6931277822338444 75.0620310475532 H 0.0 **** 0.06
16875 H 65.18788837877413 0.4966000404095965 73.94586533554906 H 0.0 **** 0.06
16876 C 95.45874887479687 25.057240956953308 86.09745854192673 C 0.0 **** -0.24
16877 H 95.16409283556243 25.655351372076694 86.95866054058995 H 0.0 **** 0.06
16878 H 95.26065647460902 24.003623556149535 86.30058665126347 H 0.0 **** 0.06
16879 H 96.5229291838429 25.1960183343233 85.90513768552108 H 0.0 **** 0.06
16880 H 94.88808760186149 25.3723142192909 85.22381746118872 H 0.0 **** 0.06
16881 C 108.38379537539362 132.08536714655338 89.81675827184426 C 0.0 **** -0.24
16882 H 108.77231909069388 133.04098462335537 89.46381243588696 H 0.0 **** 0.06
16883 H 108.23220856947489 132.13162085323106 90.89509319890922 H 0.0 **** 0.06
16884 H 109.09620716654348 131.29518501898664 89.58204823897532 H 0.0 **** 0.06
16885 H 107.4340715983447 131.87635661915536 89.32478111731159 H 0.0 **** 0.06
16886 C 137.14163604740182 105.66091531077112 134.02191526981468 C 0.0 **** -0.24
16887 H 136.4597492443665 105.10652460402667 134.66714819850873 H 0.0 **** 0.06
16888 H 137.46794278004717 106.56730506497948 134.53161685570802 H 0.0 **** 0.06
16889 H 136.63016754185082 105.9274811900664 133.09676404018583 H 0.0 **** 0.06
16890 H 138.0083614517711 105.04025194300937 133.79143038300776 H 0.0 **** 0.06
16891 C 50.23807388288438 154.76836688881514 30.0042571152716 C 0.0 **** -0.24
16892 H 49.49323832886057 154.46382071822444 29.27030292065254 H 0.0 **** 0.06
16893 H 51.12948316705783 155.1282726345234 29.490064019775545 H 0.0 **** 0.06
16894 H 50.50057381591921 153.9153292592554 30.63130322139176 H 0.0 **** 0.06
16895 H 49.83077922798822 155.5654851919253 30.62659197167669 H 0.0 **** 0.06
16896 C 55.77259591093521 87.89199127878821 7.393303920842101 C 0.0 **** -0.24
16897 H 56.281851604489376 88.67253909253239 6.82756992912266 H 0.0 **** 0.06
16898 H 55.82705772809554 88.12245697191199 8.45805257961814 H 0.0 **** 0.06
16899 H 56.25371324819517 86.9327016574931 7.203209975322636 H 0.0 **** 0.06
16900 H 54.72832024637671 87.84303974493672 7.084423240474479 H 0.0 **** 0.06
16901 C 34.69113334743545 24.75252672749201 48.499279274850565 C 0.0 **** -0.24
16902 H 33.670100940466455 24.540640572919216 48.1825013453396 H 0.0 **** 0.06
16903 H 34.678437291584544 25.507216469000184 49.28604760578153 H 0.0 **** 0.06
16904 H 35.26582311504157 25.122641217267585 47.64967163131031 H 0.0 **** 0.06
16905 H 35.15143199601016 23.840607480533492 48.87825235825575 H 0.0 **** 0.06
16906 C 11.713750862210816 46.91116161693539 23.197792752815417 C 0.0 **** -0.24
16907 H 10.79941702118515 46.51225667845243 23.636282938281767 H 0.0 **** 0.06
16908 H 11.568996569970153 47.0607382782607 22.128469057506692 H 0.0 **** 0.06
16909 H 12.53066458938801 46.20769909447378 23.359776197832844 H 0.0 **** 0.06
16910 H 11.956302052518197 47.863812668840325 23.66832762861611 H 0.0 **** 0.06
16911 C 19.399623740987238 138.28714462642986 110.94730670449894 C 0.0 **** -0.24
16912 H 18.33622657585306 138.5002696546378 110.83721863242226 H 0.0 **** 0.06
16913 H 19.84954424474381 139.02013698108001 111.61823217135463 H 0.0 **** 0.06
16914 H 19.883566947437885 138.34043728800972 109.97236207275415 H 0.0 **** 0.06
16915 H 19.528732847436686 137.28734981293525 111.36223364206506 H 0.0 **** 0.06
16916 C 12.772086381732834 107.52599224084202 100.51521786357549 C 0.0 **** -0.24
16917 H 13.363214052841272 107.60961283313463 99.60362648634609 H 0.0 **** 0.06
16918 H 13.140227156592346 108.23852312421354 101.25449814975431 H 0.0 **** 0.06
16919 H 12.857699242370018 106.51386390160832 100.91194431416554 H 0.0 **** 0.06
16920 H 11.72738292987384 107.74111674831505 100.29191691537699 H 0.0 **** 0.06
16921 C 113.0376616285584 105.2429346068277 88.55063952405497 C 0.0 **** -0.24
16922 H 112.70951291541127 105.7074027028784 87.62079330413552 H 0.0 **** 0.06
16923 H 112.7989706835933 104.17947602366368 88.52964745776177 H 0.0 **** 0.06
16924 H 112.52886372204901 105.71409724338577 89.39112844284011 H 0.0 **** 0.06
16925 H 114.1155339788659 105.37232701388533 88.65974063378583 H 0.0 **** 0.06
16926 C 119.65110125164057 47.71158844678234 18.095663533824023 C 0.0 **** -0.24
16927 H 118.58909843502829 47.747499963786254 18.33842177693566 H 0.0 **** 0.06
16928 H 119.93214183329235 46.68874152977418 17.847930778463564 H 0.0 **** 0.06
16929 H 120.23061099105178 48.05047372182344 18.9550455491715 H 0.0 **** 0.06
16930 H 119.85105918865162 48.361469248101 17.24335726802184 H 0.0 **** 0.06
16931 C 143.81120394078002 142.3609568774409 11.98812232317158 C 0.0 **** -0.24
16932 H 144.05463443211235 141.9215288036434 12.95512993994521 H 0.0 **** 0.06
16933 H 143.92225061292964 143.4439731180517 12.043110041181023 H 0.0 **** 0.06
16934 H 142.78304295469042 142.11301079161217 11.724325218520647 H 0.0 **** 0.06
16935 H 144.48634543224327 141.9643945766689 11.229755330349036 H 0.0 **** 0.06
16936 C 41.37408173474921 132.30595928137072 0.852622214653934 C 0.0 **** -0.24
16937 H 41.52741328011152 133.381125512899 0.7629495826928689 H 0.0 **** 0.06
16938 H 41.491433935220925 131.83894807621834 -0.12545558983248384 H 0.0 **** 0.06
16939 H 40.37026943003799 132.11162037022842 1.230690245886592 H 0.0 **** 0.06
16940 H 42.10847800231858 131.89187174776256 1.543827563881365 H 0.0 **** 0.06
16941 C 52.57635713556806 140.5218884642502 56.6560305421676 C 0.0 **** -0.24
16942 H 52.68720643653819 141.35435021211174 55.96087871170451 H 0.0 **** 0.06
16943 H 51.718790432060075 140.70168846812535 57.30443280516687 H 0.0 **** 0.06
16944 H 53.47879323036409 140.432793772494 57.261966557276594 H 0.0 **** 0.06
16945 H 52.42288697181657 139.5995783938749 56.095357517304166 H 0.0 **** 0.06
16946 C 84.80602546252493 143.4120231783931 139.68015399581702 C 0.0 **** -0.24
16947 H 85.2921055362462 142.67281064843593 139.04379782974797 H 0.0 **** 0.06
16948 H 85.06425664198923 144.41403407031586 139.33612195895805 H 0.0 **** 0.06
16949 H 85.14226689885413 143.28342444262353 140.70835981683743 H 0.0 **** 0.06
16950 H 83.72518400346053 143.27870374925857 139.63126777061962 H 0.0 **** 0.06
16951 C 131.23482124029616 149.8071995862336 79.01792824267739 C 0.0 **** -0.24
16952 H 131.3861498315025 149.76039419062653 77.93963881540265 H 0.0 **** 0.06
16953 H 130.53706541296458 150.6124229384844 79.25039625462807 H 0.0 **** 0.06
16954 H 132.1885352729003 149.9979676325598 79.50983908518057 H 0.0 **** 0.06
16955 H 130.82697134526225 148.85980351051415 79.36949801823192 H 0.0 **** 0.06
16956 C 28.33473212687494 62.0125352866155 28.738816284793074 C 0.0 **** -0.24
16957 H 28.874471182789307 62.94588431193631 28.574133029057407 H 0.0 **** 0.06
16958 H 28.96465419406144 61.32470361786318 29.303540102242152 H 0.0 **** 0.06
16959 H 28.079276383875595 61.5664515240756 27.777915764165982 H 0.0 **** 0.06
16960 H 27.422468493105043 62.21538789784245 29.299620224944675 H 0.0 **** 0.06
16961 C 147.2052347978687 161.13033446033216 73.83087957161806 C 0.0 **** -0.24
16962 H 146.64725437658225 160.89377513835223 74.73739804849384 H 0.0 **** 0.06
16963 H 147.66492816509987 160.22141430095922 73.44088678013476 H 0.0 **** 0.06
16964 H 147.98104503174542 161.8591083129905 74.06322910644988 H 0.0 **** 0.06
16965 H 146.5277944844181 161.5453512283376 73.08502779610468 H 0.0 **** 0.06
16966 C 147.8802873902346 127.62140815516847 157.74263987003914 C 0.0 **** -0.24
16967 H 146.9020776437796 128.09574758807187 157.65615279113842 H 0.0 **** 0.06
16968 H 148.17241212593092 127.21224346105484 156.77506010539722 H 0.0 **** 0.06
16969 H 147.8301645977549 126.81743897029583 158.4773666609065 H 0.0 **** 0.06
16970 H 148.61443448828962 128.36105408677597 158.0621490564135 H 0.0 **** 0.06
16971 C 106.49940915907621 64.30052198054734 99.48403655564775 C 0.0 **** -0.24
16972 H 107.06079274385945 63.806374282126185 98.69069317138809 H 0.0 **** 0.06
16973 H 105.91129918321391 63.56036457707343 100.02756014108874 H 0.0 **** 0.06
16974 H 105.83335734063161 65.04581593148681 99.04794697855286 H 0.0 **** 0.06
16975 H 107.19213497279785 64.78875457276469 100.16876645844397 H 0.0 **** 0.06
16976 C 146.81612371665045 68.79703304392363 34.16298315920011 C 0.0 **** -0.24
16977 H 147.45347851606306 68.51160207824917 35.000041828403496 H 0.0 **** 0.06
16978 H 147.43040398907397 69.21046936402607 33.36280983199444 H 0.0 **** 0.06
16979 H 146.0959475087306 69.54538640942255 34.493152272865146 H 0.0 **** 0.06
16980 H 146.28408003381958 67.9182956652839 33.795940414920764 H 0.0 **** 0.06
16981 C 147.98726570708476 161.42864415245305 158.07884429312233 C 0.0 **** -0.24
16982 H 148.56549358780654 161.51540559331815 158.9995137205443 H 0.0 **** 0.06
16983 H 147.86674581471237 160.37687806568772 157.82272480948302 H 0.0 **** 0.06
16984 H 148.5102316730223 161.94309007509105 157.27317553217617 H 0.0 **** 0.06
16985 H 147.0064821533145 161.88296131108262 158.22310362328642 H 0.0 **** 0.06
16986 C 91.31660296685982 39.20278527508037 90.32770442015374 C 0.0 **** -0.24
16987 H 90.4969945409753 38.658857499005876 89.85882941582531 H 0.0 **** 0.06
16988 H 90.93882345499982 39.761541786978796 91.18451304069629 H 0.0 **** 0.06
16989 H 91.75386792546453 39.89449402802882 89.60729373348119 H 0.0 **** 0.06
16990 H 92.07758445656822 38.49612154103613 90.66067853152288 H 0.0 **** 0.06
16991 C 0.17641593975415049 170.82959378362446 71.88950075198896 C 0.0 **** -0.24
16992 H 1.2361855165257865 170.84711151149276 71.63602344279744 H 0.0 **** 0.06
16993 H -0.07485698780035932 169.863910503836 72.33040432332709 H 0.0 **** 0.06
16994 H -0.416161323549197 170.98300249386034 70.98761764487618 H 0.0 **** 0.06
16995 H -0.03906634533487363 171.6233974179206 72.60490648810196 H 0.0 **** 0.06
16996 C 152.04880964201396 42.754145051520794 76.733005233179 C 0.0 **** -0.24
16997 H 151.6302397514811 43.7168848565488 77.02642558232982 H 0.0 **** 0.06
16998 H 152.75758800381934 42.90024855009506 75.91742984845348 H 0.0 **** 0.06
16999 H 151.24623230173523 42.09399370522942 76.40318556293275 H 0.0 **** 0.06
17000 H 152.56084796952678 42.30624081257113 77.58385286403859 H 0.0 **** 0.06
17001 C 50.07895964068075 3.439505085314245 135.1399945750391 C 0.0 **** -0.24
17002 H 49.0691767711445 3.4685468364463006 135.54830853952768 H 0.0 **** 0.06
17003 H 50.70976639901062 4.145065083562109 135.6818083260857 H 0.0 **** 0.06
17004 H 50.05184585542338 3.7126792936194803 134.08526813119872 H 0.0 **** 0.06
17005 H 50.48461510218965 2.4338992792737457 135.24491243931556 H 0.0 **** 0.06
17006 C 70.31072117523878 13.705068532463542 65.63183173603733 C 0.0 **** -0.24
17007 H 69.28775359328306 13.756104934010352 65.25661467091446 H 0.0 **** 0.06
17008 H 70.58318792992574 14.66359031194461 66.07400484977059 H 0.0 **** 0.06
17009 H 70.98748207769853 13.47756936921327 64.8095179657342 H 0.0 **** 0.06
17010 H 70.380862404404 12.922648988603832 66.38814852063398 H 0.0 **** 0.06
17011 C 29.292021430402556 151.41992454276775 80.57255378583362 C 0.0 **** -0.24
17012 H 28.904629568256695 151.4577207807387 81.59029744325979 H 0.0 **** 0.06
17013 H 28.630585617829695 150.81288896149567 79.95360493379567 H 0.0 **** 0.06
17014 H 30.289503853693375 150.97967533177618 80.57916082024616 H 0.0 **** 0.06
17015 H 29.344039637203736 152.43022174818728 80.1662068162617 H 0.0 **** 0.06
17016 C 81.01187625671986 95.80409243016805 151.44184113607312 C 0.0 **** -0.24
17017 H 81.64353196343365 96.68477536423526 151.32252708375898 H 0.0 **** 0.06
17018 H 80.32702415091137 95.95949531940354 152.27547278166514 H 0.0 **** 0.06
17019 H 81.63698657182977 94.93410793322153 151.64105517232403 H 0.0 **** 0.06
17020 H 80.44189612829035 95.64117981343966 150.5280045679776 H 0.0 **** 0.06
17021 C 45.55667597087324 140.12270507544326 95.17125919397611 C 0.0 **** -0.24
17022 H 46.2367300942735 139.5960435144874 94.50187726314084 H 0.0 **** 0.06
17023 H 44.815580298935174 140.6647658955133 94.58276748379888 H 0.0 **** 0.06
17024 H 46.121655132973046 140.82612589075615 95.78210439609353 H 0.0 **** 0.06
17025 H 45.05299535412968 139.4034787129076 95.81695761840814 H 0.0 **** 0.06
17026 C 68.0118080765883 102.30608972240557 161.40477077271098 C 0.0 **** -0.24
17027 H 67.6325393050602 101.52559254983154 160.7450726971421 H 0.0 **** 0.06
17028 H 68.98605698830896 102.00844321650078 161.7943203070149 H 0.0 **** 0.06
17029 H 67.31813401813291 102.45015336276461 162.2326838919087 H 0.0 **** 0.06
17030 H 68.1116355410102 103.23660439531506 160.84706648629907 H 0.0 **** 0.06
17031 C 66.21978937166512 10.829213397380443 61.36898604222213 C 0.0 **** -0.24
17032 H 67.25741844712877 10.947435323301818 61.05840008729555 H 0.0 **** 0.06
17033 H 65.97604514403362 11.586646274612008 62.115043960974845 H 0.0 **** 0.06
17034 H 66.08044756552437 9.837411449080037 61.79821083135354 H 0.0 **** 0.06
17035 H 65.56545975248697 10.946689727964952 60.50472261681833 H 0.0 **** 0.06
17036 C 80.83247004301222 82.84239949097413 119.87385335806138 C 0.0 **** -0.24
17037 H 80.5648504077696 82.51375035095835 118.87000195593612 H 0.0 **** 0.06
17038 H 80.11097531063723 82.44670515546892 120.58926481483084 H 0.0 **** 0.06
17039 H 80.824496023134 83.93195398712972 119.91339597041016 H 0.0 **** 0.06
17040 H 81.8285648465577 82.47708261259264 120.1227105288562 H 0.0 **** 0.06
17041 C 60.7620125031051 117.8023760108484 140.15472620415835 C 0.0 **** -0.24
17042 H 60.30176511188694 116.86356781060778 139.84409180300423 H 0.0 **** 0.06
17043 H 60.010747057853564 118.59298418324079 140.152452083037 H 0.0 **** 0.06
17044 H 61.56355133918811 118.06015683321306 139.46227278666277 H 0.0 **** 0.06
17045 H 61.1703818250233 117.69144020740123 141.15932061707704 H 0.0 **** 0.06
17046 C 156.75153507360346 156.231063685933 54.39974620382543 C 0.0 **** -0.24
17047 H 157.1639650584133 156.0407514043183 53.4096528313555 H 0.0 **** 0.06
17048 H 157.53073684478494 156.63842604969187 55.04573595113901 H 0.0 **** 0.06
17049 H 156.37891578690966 155.29825461507292 54.82366754777425 H 0.0 **** 0.06
17050 H 155.93304695086684 156.94673295711976 54.32210038537811 H 0.0 **** 0.06
17051 C 6.717627344925717 110.26130994843203 56.24791851656735 C 0.0 **** -0.24
17052 H 6.020757406086716 110.72273338820293 55.5480150296364 H 0.0 **** 0.06
17053 H 6.262440295760541 110.21618091385557 57.23697578879988 H 0.0 **** 0.06
17054 H 7.631139552958608 110.85557981801111 56.29422186918141 H 0.0 **** 0.06
17055 H 6.957239233003314 109.25310381331497 55.91064458560706 H 0.0 **** 0.06
17056 C 161.4894302596823 159.45911334730624 105.04904082992971 C 0.0 **** -0.24
17057 H 160.49373923163873 159.57864881950547 105.47500186743866 H 0.0 **** 0.06
17058 H 161.83507938763051 160.41616977908697 104.65886543399148 H 0.0 **** 0.06
17059 H 161.45346411693487 158.72780576674393 104.24109598905187 H 0.0 **** 0.06
17060 H 162.17562761625297 159.1125193597695 105.822317626661 H 0.0 **** 0.06
17061 C 131.0160612654818 14.869981558805762 1.3138617264450403 C 0.0 **** -0.24
17062 H 130.21383669590696 14.453163811833491 1.9248363251906255 H 0.0 **** 0.06
17063 H 131.4036123582483 14.097891253757467 0.6495493878778831 H 0.0 **** 0.06
17064 H 131.8161481475623 15.228884974920021 1.9617178214569293 H 0.0 **** 0.06
17065 H 130.62721566597213 15.698252566554373 0.7220294819427266 H 0.0 **** 0.06
17066 C 114.68929358075462 100.74989963947266 89.03144142521055 C 0.0 **** -0.24
17067 H 114.8869437876995 100.22153648530897 89.96446552811548 H 0.0 **** 0.06
17068 H 114.78148719218154 100.05486520942407 88.19589207949653 H 0.0 **** 0.06
17069 H 115.4103900081773 101.55847954189002 88.9126952141977 H 0.0 **** 0.06
17070 H 113.68089831031094 101.16179496680638 89.05412121837722 H 0.0 **** 0.06
17071 C 147.92518977730924 99.13640180747319 167.14532818480535 C 0.0 **** -0.24
17072 H 148.88122253890057 98.84444000264347 167.58150921050023 H 0.0 **** 0.06
17073 H 147.51960346092707 99.98626044140809 167.694730807018 H 0.0 **** 0.06
17074 H 147.22896010379273 98.30006567402489 167.205679582341 H 0.0 **** 0.06
17075 H 148.07154164709374 99.41319079303327 166.10111164521783 H 0.0 **** 0.06
17076 C 138.7786824300529 99.81680784543215 120.24667594748911 C 0.0 **** -0.24
17077 H 139.12605930097186 98.81062614444767 120.48059445990347 H 0.0 **** 0.06
17078 H 139.33676146880765 100.54012739168314 120.84074226561319 H 0.0 **** 0.06
17079 H 137.7168351909545 99.89657843738104 120.47939740505927 H 0.0 **** 0.06
17080 H 138.9353845591918 100.01713918502793 119.18650332120228 H 0.0 **** 0.06
17081 C 118.55431641124528 120.36881787232267 45.59022936757417 C 0.0 **** -0.24
17082 H 117.61678256479908 119.813546998134 45.61174025893462 H 0.0 **** 0.06
17083 H 118.41455031733634 121.33690619152807 46.07067147117763 H 0.0 **** 0.06
17084 H 118.86396298457288 120.51734666258864 44.55614022238662 H 0.0 **** 0.06
17085 H 119.32098415347042 119.80553856765553 46.12290581971703 H 0.0 **** 0.06
17086 C 23.639335425674368 62.2461269425995 110.19709295132952 C 0.0 **** -0.24
17087 H 24.444312899182023 61.57138854338885 109.9036264616476 H 0.0 **** 0.06
17088 H 22.955462952959614 61.72585553606426 110.86740875602345 H 0.0 **** 0.06
17089 H 23.099386959117844 62.57261179767734 109.30818323525924 H 0.0 **** 0.06
17090 H 24.059199017214155 63.112620716918926 110.70635441881294 H 0.0 **** 0.06
17091 C 104.2016954224105 89.19135328084678 91.99290941149408 C 0.0 **** -0.24
17092 H 104.01819768646533 88.11834236162309 92.0500875408353 H 0.0 **** 0.06
17093 H 105.17403838531374 89.41666894005078 92.43167611359573 H 0.0 **** 0.06
17094 H 103.42402031021481 89.72266452323217 92.54025293084845 H 0.0 **** 0.06
17095 H 104.1915733677761 89.50688858159845 90.94919526087894 H 0.0 **** 0.06
17096 C 23.26191034265787 137.06623779557094 108.55576621995897 C 0.0 **** -0.24
17097 H 23.182672608358956 136.00770676722294 108.30794444784772 H 0.0 **** 0.06
17098 H 24.274868441202642 137.28501233203363 108.89361348926752 H 0.0 **** 0.06
17099 H 22.55456305162832 137.30832813980288 109.34852358563893 H 0.0 **** 0.06
17100 H 23.036448384098293 137.66389632484413 107.67257124062428 H 0.0 **** 0.06
17101 C 85.02423927367398 34.17698319506421 60.522634834930884 C 0.0 **** -0.24
17102 H 84.19256702947948 33.47221232667033 60.513775022176006 H 0.0 **** 0.06
17103 H 85.96526804244849 33.62761234596297 60.51440730757864 H 0.0 **** 0.06
17104 H 84.9698823554606 34.791393406930666 61.421274139298134 H 0.0 **** 0.06
17105 H 84.96812178432216 34.816580050255396 59.641938594197626 H 0.0 **** 0.06
17106 C 147.08044707854523 53.67573044008927 11.69013629269267 C 0.0 **** -0.24
17107 H 146.79430992322443 54.07208329810983 12.664577741204795 H 0.0 **** 0.06
17108 H 147.7270753910085 54.39117890871687 11.182232270921816 H 0.0 **** 0.06
17109 H 146.18632234372234 53.50468349187015 11.090939267212178 H 0.0 **** 0.06
17110 H 147.61278523172547 52.73343028436034 11.823761597165344 H 0.0 **** 0.06
17111 C 159.7741914822105 171.70247419828164 92.45353261923762 C 0.0 **** -0.24
17112 H 159.1278713750164 172.17017439124473 93.19646333094863 H 0.0 **** 0.06
17113 H 160.78738627658015 172.09119058375703 92.55880409364337 H 0.0 **** 0.06
17114 H 159.40021487049884 171.92538363289157 91.45509032432307 H 0.0 **** 0.06
17115 H 159.78090318572708 170.62251143170414 92.6066783301909 H 0.0 **** 0.06
17116 C 23.676383309641317 121.70092156764508 5.269385714145841 C 0.0 **** -0.24
17117 H 24.088194767773167 121.62401177822608 4.26327916783346 H 0.0 **** 0.06
17118 H 24.06137336664215 122.60047214207495 5.750825882325934 H 0.0 **** 0.06
17119 H 23.967725722903502 120.82427670117119 5.849011969824922 H 0.0 **** 0.06
17120 H 22.589622910195843 121.75468679591623 5.214255975883837 H 0.0 **** 0.06
17121 C 160.44440642867843 11.625924869871852 7.571600051526843 C 0.0 **** -0.24
17122 H 159.67293178940002 12.375944035884146 7.750545187959119 H 0.0 **** 0.06
17123 H 160.18141080069523 10.704619245388159 8.09121955406681 H 0.0 **** 0.06
17124 H 161.40094545934835 11.99391993787333 7.944000272730591 H 0.0 **** 0.06
17125 H 160.5213719575638 11.431612368799449 6.502160420603218 H 0.0 **** 0.06
17126 C 93.97404736394736 20.44841742134423 129.228955485773 C 0.0 **** -0.24
17127 H 94.93605366949546 20.425047166421905 129.74152928722364 H 0.0 **** 0.06
17128 H 93.40480248398526 19.554073291527516 129.4832487058763 H 0.0 **** 0.06
17129 H 94.13731068142687 20.481578924737136 128.1519371116111 H 0.0 **** 0.06
17130 H 93.41857717575209 21.333777544200615 129.53890470483105 H 0.0 **** 0.06
17131 C 29.663830504473594 55.611371680906714 24.90190351957088 C 0.0 **** -0.24
17132 H 28.951692513350253 55.48737211253278 25.71826238524352 H 0.0 **** 0.06
17133 H 29.353915394451064 54.997135490659815 24.05563066077326 H 0.0 **** 0.06
17134 H 30.654152142892542 55.300513097098445 25.232944523690463 H 0.0 **** 0.06
17135 H 29.69240691517274 56.657993023293514 24.59981194010487 H 0.0 **** 0.06
17136 C 80.0125661918656 0.0870126761298593 99.50583510504475 C 0.0 **** -0.24
17137 H 80.87605260365126 0.6802518950672152 99.20293303506668 H 0.0 **** 0.06
17138 H 80.24020009772492 -0.9719323612203823 99.38458168572998 H 0.0 **** 0.06
17139 H 79.15608301600535 0.348542766677582 98.88503179848558 H 0.0 **** 0.06
17140 H 79.78036388134835 0.2913014287217379 100.55055102293926 H 0.0 **** 0.06
17141 C 130.79462820591746 87.44487018638642 94.22700221195106 C 0.0 **** -0.24
17142 H 131.22078352477973 86.9641545855045 93.34684806650009 H 0.0 **** 0.06
17143 H 130.77077889099442 86.73398493002128 95.05324404182693 H 0.0 **** 0.06
17144 H 129.78071690136028 87.77836295812097 94.0046834357299 H 0.0 **** 0.06
17145 H 131.40608343634142 88.30389918782112 94.50429605897077 H 0.0 **** 0.06
17146 C 51.898284470556405 101.5353003301571 18.135621846544552 C 0.0 **** -0.24
17147 H 51.13884716115 102.28256305353028 18.36818928185653 H 0.0 **** 0.06
17148 H 52.05965907146458 101.50587368317639 17.05787117710787 H 0.0 **** 0.06
17149 H 51.562174331762705 100.55706215771869 18.480056528665642 H 0.0 **** 0.06
17150 H 52.829878456641836 101.79716166085399 18.63683982425846 H 0.0 **** 0.06
17151 C 102.1930758143958 58.30262092732863 116.00075857858846 C 0.0 **** -0.24
17152 H 101.857141013622 58.28840339261447 117.0370055673466 H 0.0 **** 0.06
17153 H 101.4000664029667 58.70001675615657 115.3666814269211 H 0.0 **** 0.06
17154 H 102.43849554112575 57.28849027929925 115.68442427785487 H 0.0 **** 0.06
17155 H 103.07778380940451 58.93354785034285 115.91414927591558 H 0.0 **** 0.06
17156 C 169.84939554463173 143.80275150251074 115.62145119294019 C 0.0 **** -0.24
17157 H 169.01428374322361 143.28288179129538 115.15221570759769 H 0.0 **** 0.06
17158 H 169.80668140158332 144.86214256779874 115.36964126037208 H 0.0 **** 0.06
17159 H 170.7881277432514 143.38007479739713 115.26173953097756 H 0.0 **** 0.06
17160 H 169.788733126799 143.68297343481603 116.70336407456278 H 0.0 **** 0.06
17161 C 30.999939855910213 29.265508075176967 127.21025059282042 C 0.0 **** -0.24
17162 H 30.88702275656445 30.131981922101204 126.5595863534034 H 0.0 **** 0.06
17163 H 31.985847147979598 29.28416378167725 127.67408886684498 H 0.0 **** 0.06
17164 H 30.89221224724116 28.353719795879954 126.62158080424095 H 0.0 **** 0.06
17165 H 30.232747799317053 29.290094770849407 127.98475433975653 H 0.0 **** 0.06
17166 C 100.99009102438472 34.440963334007336 62.34287526753839 C 0.0 **** -0.24
17167 H 100.92868028735026 35.475526643791426 62.67853823393027 H 0.0 **** 0.06
17168 H 101.18776627534282 33.79284727100338 63.19756719546871 H 0.0 **** 0.06
17169 H 101.79852897102504 34.34236545108337 61.61756584097701 H 0.0 **** 0.06
17170 H 100.04754669961923 34.15349527914377 61.87827386394761 H 0.0 **** 0.06
17171 C 65.35058787866322 53.122944612689125 52.79303969168632 C 0.0 **** -0.24
17172 H 64.8547496721219 52.545788878659735 53.574120316928315 H 0.0 **** 0.06
17173 H 64.59966672241026 53.60460238194503 52.16588944978328 H 0.0 **** 0.06
17174 H 65.96157255626656 52.45843441839612 52.18288964121908 H 0.0 **** 0.06
17175 H 65.98472559408393 53.88230195630247 53.25063664196516 H 0.0 **** 0.06
17176 C 89.45389790866312 159.56880892430934 3.7415453173256594 C 0.0 **** -0.24
17177 H 88.3906708998444 159.47637798996684 3.959203275431804 H 0.0 **** 0.06
17178 H 90.03184832161907 159.2556486281499 4.611785612146463 H 0.0 **** 0.06
17179 H 89.68835087731816 160.60683073091346 3.5037959869524116 H 0.0 **** 0.06
17180 H 89.70548621421352 158.93539850126476 2.8901900570093915 H 0.0 **** 0.06
17181 C 125.4558947495805 52.01589687863478 16.476636845256735 C 0.0 **** -0.24
17182 H 125.84093898074224 51.65458031967805 17.43134755020685 H 0.0 **** 0.06
17183 H 126.127648852352 52.776658095575385 16.078953575653145 H 0.0 **** 0.06
17184 H 124.4660753392807 52.44727860201954 16.62534637556206 H 0.0 **** 0.06
17185 H 125.38960769435457 51.18518467247884 15.774575294299154 H 0.0 **** 0.06
17186 C 167.3890059799474 31.89394525051091 96.01391607733291 C 0.0 **** -0.24
17187 H 167.46306472621708 31.04840452045093 96.69872144871516 H 0.0 **** 0.06
17188 H 168.16949186750142 32.61896767732196 96.24686129031244 H 0.0 **** 0.06
17189 H 166.41163672061 32.363682699616504 96.12175961656959 H 0.0 **** 0.06
17190 H 167.5130500768696 31.542712072225157 94.98899777209044 H 0.0 **** 0.06
17191 C 69.5102243547233 138.6525893597636 96.98092357474184 C 0.0 **** -0.24
17192 H 69.62214687975217 139.72701386544057 96.83308402087013 H 0.0 **** 0.06
17193 H 70.36423149929583 138.2731195268378 97.54113210876204 H 0.0 **** 0.06
17194 H 69.46143193654714 138.1571868144377 96.01092882240576 H 0.0 **** 0.06
17195 H 68.59294016329703 138.45636370620565 97.53611758726012 H 0.0 **** 0.06
17196 C 34.735704966831236 0.04095180825731859 118.32426715760806 C 0.0 **** -0.24
17197 H 34.777557046750985 -0.30461583282892946 119.35718273659762 H 0.0 **** 0.06
17198 H 33.718544141033675 -0.06322890125048275 117.94820813912114 H 0.0 **** 0.06
17199 H 35.41232794995264 -0.557943047679764 117.71443727707899 H 0.0 **** 0.06
17200 H 35.03594693368454 1.0869130734965111 118.27933471037247 H 0.0 **** 0.06
17201 C 154.62650108109344 9.285373798533612 52.656314289941065 C 0.0 **** -0.24
17202 H 153.8623735531446 9.701114684242839 52.00046462151158 H 0.0 **** 0.06
17203 H 154.64588118606352 8.200014210624317 52.5486750147287 H 0.0 **** 0.06
17204 H 154.39747501151527 9.54381490416307 53.6900446378321 H 0.0 **** 0.06
17205 H 155.60021086236324 9.695140561897176 52.38599841155184 H 0.0 **** 0.06
17206 C 25.102949341472964 167.96001627998888 105.8198788404155 C 0.0 **** -0.24
17207 H 25.617961476239344 167.4347613176328 105.01545114679664 H 0.0 **** 0.06
17208 H 25.458580370203748 167.58928323154015 106.78077776288788 H 0.0 **** 0.06
17209 H 24.029600830473782 167.78847078612063 105.73779774399156 H 0.0 **** 0.06
17210 H 25.306469674228964 169.02875738355743 105.74455191145572 H 0.0 **** 0.06
17211 C 110.73285303039927 100.98103312546402 87.8267350657544 C 0.0 **** -0.24
17212 H 110.43152777779426 102.02039779597027 87.95812519276552 H 0.0 **** 0.06
17213 H 111.80772895919233 100.93489097232509 87.64799821555187 H 0.0 **** 0.06
17214 H 110.20421863501127 100.55365371663328 86.97569002936018 H 0.0 **** 0.06
17215 H 110.48995931928067 100.41585929113955 88.72633573042486 H 0.0 **** 0.06
17216 C 13.04976901876691 74.39438258383957 93.50111700772533 C 0.0 **** -0.24
17217 H 13.813226663481458 73.62607231030943 93.3787857599142 H 0.0 **** 0.06
17218 H 13.143018299069183 74.84381971131315 94.4901999413251 H 0.0 **** 0.06
17219 H 12.061655595486968 73.94558750424206 93.39753112157663 H 0.0 **** 0.06
17220 H 13.181495248649156 75.16184635113679 92.73887640882253 H 0.0 **** 0.06
17221 C 32.06250187335354 118.07565360000632 164.12969925274575 C 0.0 **** -0.24
17222 H 31.370692718750377 118.91626779541019 164.18361635705082 H 0.0 **** 0.06
17223 H 32.55500695422086 118.07256084540285 163.1565253689497 H 0.0 **** 0.06
17224 H 31.51254747034244 117.14360077140896 164.2614067922808 H 0.0 **** 0.06
17225 H 32.81173704596637 118.16948441220126 164.91602019851592 H 0.0 **** 0.06
17226 C 154.59170392196995 158.12116160007335 118.76776950643185 C 0.0 **** -0.24
17227 H 154.93765786569372 157.24946090207575 118.21262994160105 H 0.0 **** 0.06
17228 H 155.422928564811 158.54689809471526 119.32982040702288 H 0.0 **** 0.06
17229 H 153.8018189431443 157.8231760707212 119.45673576800743 H 0.0 **** 0.06
17230 H 154.20441031423067 158.86511133278114 118.07189190909597 H 0.0 **** 0.06
17231 C 78.54265399902343 165.14889629790656 117.38894478706536 C 0.0 **** -0.24
17232 H 77.97896458012433 164.28199918246608 117.04618718000054 H 0.0 **** 0.06
17233 H 77.85763876745561 165.97235752484315 117.59010372124064 H 0.0 **** 0.06
17234 H 79.25329528328957 165.447673539129 116.61739352419443 H 0.0 **** 0.06
17235 H 79.08300778065842 164.8946414134072 118.30049040511022 H 0.0 **** 0.06
17236 C 24.857525533999535 84.34498281398241 47.59603464509773 C 0.0 **** -0.24
17237 H 25.656993585931247 83.64113159199533 47.82889188707125 H 0.0 **** 0.06
17238 H 24.481435476847537 84.78560822369779 48.519319921045394 H 0.0 **** 0.06
17239 H 24.048667784820083 83.81946536503332 47.08696217622142 H 0.0 **** 0.06
17240 H 25.244065110393365 85.13114759721925 46.94785622787663 H 0.0 **** 0.06
17241 C 125.8094461013163 24.967178842979223 59.350952056142376 C 0.0 **** -0.24
17242 H 126.2390680283508 25.230020299277413 58.38454916939628 H 0.0 **** 0.06
17243 H 126.42447612569993 24.20348122713554 59.82716966461109 H 0.0 **** 0.06
17244 H 124.79908113585628 24.582550551520114 59.206463501879085 H 0.0 **** 0.06
17245 H 125.7727975612506 25.852422190499198 59.985021654540844 H 0.0 **** 0.06
17246 C 3.1026738992017044 71.4202499043899 75.27884647270355 C 0.0 **** -0.24
17247 H 3.439644910573719 70.40754037307927 75.49853513398165 H 0.0 **** 0.06
17248 H 2.129075889426474 71.5867042632971 75.74192540869726 H 0.0 **** 0.06
17249 H 3.0191322040953423 71.55033320994553 74.20021387409903 H 0.0 **** 0.06
17250 H 3.8214746077661914 72.13636792741818 75.67738092518226 H 0.0 **** 0.06
17251 C 163.9686322666853 87.0734230366499 79.07637852128023 C 0.0 **** -0.24
17252 H 164.27123877628014 86.22939483350248 78.455907812057 H 0.0 **** 0.06
17253 H 164.75037495028727 87.8323425095946 79.06426362176782 H 0.0 **** 0.06
17254 H 163.80782587831334 86.73256051914845 80.09856304535268 H 0.0 **** 0.06
17255 H 163.04320233009128 87.49736083817285 78.68526167655365 H 0.0 **** 0.06
17256 C 122.62467616218905 136.88536857274875 85.61889190615807 C 0.0 **** -0.24
17257 H 123.39282103072998 136.64024027916543 86.35238476015104 H 0.0 **** 0.06
17258 H 123.020123680305 136.73353338912216 84.61432705714407 H 0.0 **** 0.06
17259 H 122.32706757508538 137.92745220598374 85.73899618782957 H 0.0 **** 0.06
17260 H 121.75870839393193 136.2410725331468 85.76929340130698 H 0.0 **** 0.06
17261 C 163.47814170376273 55.21358778663891 159.0746770767597 C 0.0 **** -0.24
17262 H 163.71913756640845 55.73151923686926 158.14668075376255 H 0.0 **** 0.06
17263 H 162.91579639213583 54.3063107303219 158.8493365874515 H 0.0 **** 0.06
17264 H 162.87907505297278 55.864913353968376 159.70948829444032 H 0.0 **** 0.06
17265 H 164.40034684687447 54.94941920831077 159.59219791740114 H 0.0 **** 0.06
17266 C 133.65986299252972 170.84163763253986 10.28581840230001 C 0.0 **** -0.24
17267 H 132.83047772641825 170.35933618805987 10.802008822357266 H 0.0 **** 0.06
17268 H 133.2697901123702 171.51298113126458 9.520864653757783 H 0.0 **** 0.06
17269 H 134.2865396800201 170.08184453974155 9.817185269593097 H 0.0 **** 0.06
17270 H 134.25234551282963 171.41029901096414 11.002477234866987 H 0.0 **** 0.06
17271 C 77.28771620653288 105.29866424725319 29.355562832225885 C 0.0 **** -0.24
17272 H 77.53089279585728 105.44922514684941 30.4073611714509 H 0.0 **** 0.06
17273 H 76.5176209310032 104.5316407591821 29.266869810545856 H 0.0 **** 0.06
17274 H 78.18153746812652 104.98099299047982 28.818258708080023 H 0.0 **** 0.06
17275 H 76.92081363114431 106.2327980925013 28.929761638826818 H 0.0 **** 0.06
17276 C 169.5624875690683 163.2491428592069 61.201373817341675 C 0.0 **** -0.24
17277 H 170.22226642773086 164.07358551321414 61.470636396542844 H 0.0 **** 0.06
17278 H 169.66770816668367 162.44568106401505 61.93083935620663 H 0.0 **** 0.06
17279 H 169.82883524515097 162.87836937451218 60.21120961677232 H 0.0 **** 0.06
17280 H 168.52982932343429 163.59881939927203 61.1922926359554 H 0.0 **** 0.06
17281 C 73.42280083170891 105.93973663730259 162.00961154082216 C 0.0 **** -0.24
17282 H 74.36257660643932 105.38783247974038 162.0238409354045 H 0.0 **** 0.06
17283 H 73.53420413321447 106.83148386481673 161.3935495754149 H 0.0 **** 0.06
17284 H 73.15659847424394 106.23071247969852 163.02653709993345 H 0.0 **** 0.06
17285 H 72.63721908122011 105.30718458344174 161.59614038011821 H 0.0 **** 0.06
17286 C 156.48294581009793 168.8453578366947 172.4987575160518 C 0.0 **** -0.24
17287 H 155.76155150725214 169.14640390726382 171.7394863574545 H 0.0 **** 0.06
17288 H 157.2914315319303 168.2842172614892 172.03009742668962 H 0.0 **** 0.06
17289 H 155.98830541357376 168.21975278299533 173.24110740180947 H 0.0 **** 0.06
17290 H 156.89018647365168 169.73264811174442 172.9837267944206 H 0.0 **** 0.06
17291 C 39.285232455107234 45.948327841058926 110.83447458097703 C 0.0 **** -0.24
17292 H 40.19115799001915 45.9063710767947 111.43835429834098 H 0.0 **** 0.06
17293 H 38.579165166893915 45.19558228840583 111.18678741840759 H 0.0 **** 0.06
17294 H 39.534659485620836 45.75302484842007 109.79144625582046 H 0.0 **** 0.06
17295 H 38.83599534559875 46.937046745699405 110.92072477629674 H 0.0 **** 0.06
17296 C 25.53177069406837 27.602816976315815 108.53522948073186 C 0.0 **** -0.24
17297 H 24.567365189782294 28.020554025646575 108.2476065613049 H 0.0 **** 0.06
17298 H 25.476202216657498 26.51433749909603 108.518295530335 H 0.0 **** 0.06
17299 H 25.788472196954558 27.9391346702906 109.54005580817287 H 0.0 **** 0.06
17300 H 26.296838764055735 27.93798947504068 107.83385691850734 H 0.0 **** 0.06
17301 C 86.80896094395928 142.2257079904224 149.05343548462835 C 0.0 **** -0.24
17302 H 87.39475733805449 141.31755877636598 149.1947817552963 H 0.0 **** 0.06
17303 H 86.29324054952559 142.17946126774314 148.09478389361118 H 0.0 **** 0.06
17304 H 87.47230716549359 143.09148358051607 149.06842384582143 H 0.0 **** 0.06
17305 H 86.07770251270165 142.3145453683209 149.8562730685967 H 0.0 **** 0.06
17306 C 4.382594109841051 3.008634950895839 124.98256761147644 C 0.0 **** -0.24
17307 H 3.420136811612821 3.330725128326634 125.38015917690649 H 0.0 **** 0.06
17308 H 4.362747298180047 3.0639347285558074 123.89372085924728 H 0.0 **** 0.06
17309 H 4.577874481395845 1.9816238764501861 125.29149805779488 H 0.0 **** 0.06
17310 H 5.169993348305461 3.659085360212714 125.36597463365567 H 0.0 **** 0.06
17311 C 148.82422890046655 81.24054578845075 136.49278684302323 C 0.0 **** -0.24
17312 H 149.88822760189186 81.24731468533685 136.25487478309512 H 0.0 **** 0.06
17313 H 148.50710898156467 80.2209847238134 136.711273385524 H 0.0 **** 0.06
17314 H 148.25982019034143 81.62196080069258 135.6416936697819 H 0.0 **** 0.06
17315 H 148.64240509699732 81.87200080038258 137.361700429756 H 0.0 **** 0.06
17316 C 46.398670227064926 105.53422799833734 160.9241983715402 C 0.0 **** -0.24
17317 H 45.36044943908749 105.6940905316219 161.21438751460175 H 0.0 **** 0.06
17318 H 46.66561920796953 106.23100314850129 160.12980501256396 H 0.0 **** 0.06
17319 H 46.5230405587415 104.51118910967577 160.5679699865409 H 0.0 **** 0.06
17320 H 47.04684286579452 105.69971878088381 161.7853761960073 H 0.0 **** 0.06
17321 C 31.192968041594327 126.15248799521538 41.80122109140356 C 0.0 **** -0.24
17322 H 30.682696433976048 125.89834653715963 40.8725391374617 H 0.0 **** 0.06
17323 H 30.54595495068702 126.78510591538713 42.40974376232424 H 0.0 **** 0.06
17324 H 32.11560685610766 126.68610292850286 41.57443730144098 H 0.0 **** 0.06
17325 H 31.42611868961717 125.23875356922167 42.34841883962142 H 0.0 **** 0.06
17326 C 48.91069461280935 148.00037522728127 88.0914900376378 C 0.0 **** -0.24
17327 H 48.461771304253205 147.10569897554169 88.52461068324403 H 0.0 **** 0.06
17328 H 49.03581878105365 148.75522917121987 88.86748400512981 H 0.0 **** 0.06
17329 H 48.26174063258148 148.3888401452915 87.307100528533 H 0.0 **** 0.06
17330 H 49.88334963498994 147.74820601291847 87.66801146118226 H 0.0 **** 0.06
17331 C 73.84404035382518 71.4893466186506 44.00697720147838 C 0.0 **** -0.24
17332 H 73.42584399565224 72.48649011170322 43.871349657640906 H 0.0 **** 0.06
17333 H 73.36023208867175 71.00339296405366 44.85436719341965 H 0.0 **** 0.06
17334 H 74.91460111600594 71.56783485073817 44.19517237960406 H 0.0 **** 0.06
17335 H 73.6761132973543 70.89946056948988 43.105770152937225 H 0.0 **** 0.06
17336 C 83.95341902394983 76.25973885892135 94.16122472517006 C 0.0 **** -0.24
17337 H 84.45601677635892 75.3018577511302 94.29099157872395 H 0.0 **** 0.06
17338 H 84.18306362780197 76.90864517546305 95.00756696646474 H 0.0 **** 0.06
17339 H 82.87607453496094 76.10028386277338 94.10769748648679 H 0.0 **** 0.06
17340 H 84.29764344132667 76.72901784682564 93.23935598198756 H 0.0 **** 0.06
17341 C 119.53559148195959 99.28509469662816 76.81693343795283 C 0.0 **** -0.24
17342 H 118.58123551382076 99.8104117197376 76.79146037831495 H 0.0 **** 0.06
17343 H 120.14450816218258 99.67969169437765 77.63027399905008 H 0.0 **** 0.06
17344 H 120.05607473227718 99.4305600806021 75.87053015015252 H 0.0 **** 0.06
17345 H 119.3614226707449 98.22116653577126 76.97692803921706 H 0.0 **** 0.06
17346 C 107.9160738285708 7.130169971764644 60.11723920576492 C 0.0 **** -0.24
17347 H 107.75975498626528 6.136167986493739 59.69694444450042 H 0.0 **** 0.06
17348 H 108.53055531976182 7.7197282426642175 59.43691889560621 H 0.0 **** 0.06
17349 H 108.42107044061947 7.042155112560565 61.07959361735699 H 0.0 **** 0.06
17350 H 106.95238526238458 7.621396260700713 60.255948604252126 H 0.0 **** 0.06
17351 C 118.11670862484542 140.74509881309842 63.25130505920163 C 0.0 **** -0.24
17352 H 117.4466924161712 141.0342128332371 64.06127454087869 H 0.0 **** 0.06
17353 H 117.82863625987926 139.76377499989545 62.873905960298714 H 0.0 **** 0.06
17354 H 119.14011343571559 140.70448655440597 63.62410717743293 H 0.0 **** 0.06
17355 H 118.05221909951223 141.47786930985916 62.44649284156594 H 0.0 **** 0.06
17356 C 97.04649444358142 25.997243288479012 21.775827402987687 C 0.0 **** -0.24
17357 H 97.55051703578022 26.926609809919796 21.510050638284184 H 0.0 **** 0.06
17358 H 97.09473351989737 25.85531644358292 22.855822295738847 H 0.0 **** 0.06
17359 H 97.53885027130451 25.16286146701509 21.277074077928148 H 0.0 **** 0.06
17360 H 96.00454595614787 26.046153092007955 21.460433443845744 H 0.0 **** 0.06
17361 C 64.83252106630135 62.09174523195367 167.2733051217095 C 0.0 **** -0.24
17362 H 65.61496429054023 62.8380973889474 167.13905453251397 H 0.0 **** 0.06
17363 H 63.93110352038832 62.574576101384736 167.65120187368333 H 0.0 **** 0.06
17364 H 65.16788763475495 61.33881651461746 167.98747235201017 H 0.0 **** 0.06
17365 H 64.6176895131469 61.614895056792534 166.31777414018148 H 0.0 **** 0.06
17366 C 11.11689013275663 42.78129927533848 15.005899390220527 C 0.0 **** -0.24
17367 H 11.312448657264142 42.243360050512024 15.932157112623734 H 0.0 **** 0.06
17368 H 10.051729526106683 42.99927737703763 14.929266433230971 H 0.0 **** 0.06
17369 H 11.424472536673157 42.16833983710137 14.158074522877833 H 0.0 **** 0.06
17370 H 11.680127323407433 43.71461586596536 15.002266198944028 H 0.0 **** 0.06
17371 C 83.46575574400795 53.282460722043766 170.14845137084276 C 0.0 **** -0.24
17372 H 83.43034672309906 52.34296621665764 169.59669828557233 H 0.0 **** 0.06
17373 H 84.0871832662655 53.15984329604369 171.03576191304472 H 0.0 **** 0.06
17374 H 82.45711225872083 53.56630620120879 170.44682733602951 H 0.0 **** 0.06
17375 H 83.88981055673848 54.06075990181216 169.5131198678039 H 0.0 **** 0.06
17376 C 89.66374790997236 33.24741105852314 94.7940251383196 C 0.0 **** -0.24
17377 H 89.18333985216367 32.704124959645696 95.6075431088033 H 0.0 **** 0.06
17378 H 90.4771018999848 33.85382929378338 95.19218639711795 H 0.0 **** 0.06
17379 H 88.93336911885524 33.892323539091024 94.30695547491791 H 0.0 **** 0.06
17380 H 90.0620438190432 32.53649554203423 94.06953103521988 H 0.0 **** 0.06
17381 C 124.67393680420076 7.66037011378765 135.45773191324352 C 0.0 **** -0.24
17382 H 125.38334326943283 6.992528851717509 134.96982958810563 H 0.0 **** 0.06
17383 H 125.15581954372823 8.617348836868274 135.65997917987178 H 0.0 **** 0.06
17384 H 124.34067342670494 7.215655840651692 136.3951581277058 H 0.0 **** 0.06
17385 H 123.8152754130121 7.818051321537553 134.8048801347182 H 0.0 **** 0.06
17386 C 22.448397813711303 57.75558378891964 108.27237669988992 C 0.0 **** -0.24
17387 H 21.41384653954367 57.44285801029062 108.40733366848042 H 0.0 **** 0.06
17388 H 22.94851300099073 57.07193717769184 107.58575648558931 H 0.0 **** 0.06
17389 H 22.960299473826282 57.743281324099314 109.23496619883684 H 0.0 **** 0.06
17390 H 22.47233573630259 58.764428886937026 107.8614147737344 H 0.0 **** 0.06
17391 C 121.38276754565345 155.42303673935362 24.71290634319385 C 0.0 **** -0.24
17392 H 121.91702628315423 155.91169100319308 25.52859552277318 H 0.0 **** 0.06
17393 H 120.30980516283441 155.56557334758284 24.845062505749617 H 0.0 **** 0.06
17394 H 121.61159843389296 154.35719966703743 24.716641688892594 H 0.0 **** 0.06
17395 H 121.69333277864249 155.85806599878137 23.763417038260833 H 0.0 **** 0.06
17396 C 152.86484518931968 114.79800694449611 118.10198255010124 C 0.0 **** -0.24
17397 H 152.50277367893625 115.59595392180975 118.75037134639143 H 0.0 **** 0.06
17398 H 153.2674481248216 115.23014351299756 117.18542591247086 H 0.0 **** 0.06
17399 H 152.04158321796365 114.12741487903591 117.85764637432754 H 0.0 **** 0.06
17400 H 153.6477969201614 114.24027561803231 118.61584784430283 H 0.0 **** 0.06
17401 C 130.73821750708214 161.29680609809802 130.2612593857974 C 0.0 **** -0.24
17402 H 130.2314412044044 161.15096201242164 129.30660001992138 H 0.0 **** 0.06
17403 H 131.80206841329402 161.4528140516603 130.08617678926038 H 0.0 **** 0.06
17404 H 130.59808566829918 160.41271895820066 130.8850624359523 H 0.0 **** 0.06
17405 H 130.31992225189737 162.1672165319655 130.76500028338137 H 0.0 **** 0.06
17406 C 167.21054671365806 36.28554500824433 125.21161602403112 C 0.0 **** -0.24
17407 H 166.78552122819679 35.34327301458673 125.55692603285016 H 0.0 **** 0.06
17408 H 166.91197372389144 37.087133836354226 125.88581751718934 H 0.0 **** 0.06
17409 H 166.84757580178874 36.500101709298576 124.20631023318037 H 0.0 **** 0.06
17410 H 168.29762683500078 36.20872433587144 125.19597718971681 H 0.0 **** 0.06
17411 C 142.16635387702004 164.4949547934882 57.126470670440085 C 0.0 **** -0.24
17412 H 142.15719135865132 165.34030877591272 56.43923865230812 H 0.0 **** 0.06
17413 H 141.7055128257869 163.63152450566758 56.64572658707209 H 0.0 **** 0.06
17414 H 141.6074491359767 164.7519284721301 58.02571100225069 H 0.0 **** 0.06
17415 H 143.1960105585358 164.25584811808903 57.393658468086926 H 0.0 **** 0.06
17416 C 160.2879799911621 66.1501874426715 135.35215163298315 C 0.0 **** -0.24
17417 H 160.86854362345224 67.07075865497396 135.4109197617459 H 0.0 **** 0.06
17418 H 160.86713172340774 65.38788399426248 134.83166734913104 H 0.0 **** 0.06
17419 H 159.362532750454 66.3389198229841 134.80640285478006 H 0.0 **** 0.06
17420 H 160.051949906646 65.80401640436578 136.35813054961025 H 0.0 **** 0.06
17421 C 155.55574267798116 56.41280052104912 112.68089640387444 C 0.0 **** -0.24
17422 H 155.05981040442924 57.143761497415255 112.04151041478482 H 0.0 **** 0.06
17423 H 155.07601916783997 55.441209890338655 112.5607914597579 H 0.0 **** 0.06
17424 H 155.480097269356 56.729932394265575 113.72075039260625 H 0.0 **** 0.06
17425 H 156.60621432116088 56.33804912748565 112.39941683653768 H 0.0 **** 0.06
17426 C 155.86870759866918 17.212549467511842 63.96853903947681 C 0.0 **** -0.24
17427 H 155.38189346529796 17.92435331471311 63.302567237021776 H 0.0 **** 0.06
17428 H 156.89859681956585 17.524588533577578 64.14209594834449 H 0.0 **** 0.06
17429 H 155.86021633995 16.223398716951884 63.51090613955495 H 0.0 **** 0.06
17430 H 155.33405813110664 17.17839120702923 64.91727889727173 H 0.0 **** 0.06
17431 C 141.13654674591862 51.2050718496356 140.9063514495245 C 0.0 **** -0.24
17432 H 141.70520701475434 51.88173951263545 141.5440892903536 H 0.0 **** 0.06
17433 H 141.46233037641088 51.32065439518459 139.87210006997083 H 0.0 **** 0.06
17434 H 140.07467205858194 51.441792572731515 140.98128918479648 H 0.0 **** 0.06
17435 H 141.30301057374948 50.17713292737919 141.2279265451432 H 0.0 **** 0.06
17436 C 49.48004470944994 89.8520534834667 151.6941769465483 C 0.0 **** -0.24
17437 H 48.722685172397036 90.15782531657936 150.97205208522195 H 0.0 **** 0.06
17438 H 50.31462572667908 90.55331226172314 151.66277838967787 H 0.0 **** 0.06
17439 H 49.8362790048231 88.85189308394774 151.44617794553807 H 0.0 **** 0.06
17440 H 49.04749951235243 89.84576572135342 152.69478741452312 H 0.0 **** 0.06
17441 C 152.60815183638576 122.93398465282209 80.23867796383867 C 0.0 **** -0.24
17442 H 153.57814806181582 122.47826352244311 80.03962329385695 H 0.0 **** 0.06
17443 H 152.7232870779734 124.01494653714576 80.31517274393204 H 0.0 **** 0.06
17444 H 152.20861436041056 122.54315736446932 81.17450862291179 H 0.0 **** 0.06
17445 H 151.92287445798246 122.69836008853045 79.4247491276058 H 0.0 **** 0.06
17446 C 65.78327851410137 90.35348659592398 61.70119599023137 C 0.0 **** -0.24
17447 H 64.73198409430141 90.58063745624062 61.52627687936187 H 0.0 **** 0.06
17448 H 66.17350007797495 91.01567957811699 62.47487926232289 H 0.0 **** 0.06
17449 H 66.34585252166423 90.49984256321693 60.77939308902198 H 0.0 **** 0.06
17450 H 65.8819334478138 89.3171985139088 62.025511299461485 H 0.0 **** 0.06
17451 C 12.432151856689856 16.067729752354232 145.11167926688637 C 0.0 **** -0.24
17452 H 12.714424126242264 16.945930890394216 145.69231022581087 H 0.0 **** 0.06
17453 H 12.03029759811323 15.305541335306351 145.77930128402662 H 0.0 **** 0.06
17454 H 13.309260286922694 15.67548975041992 144.59638150413662 H 0.0 **** 0.06
17455 H 11.674736163345514 16.34532749999952 144.3790551302846 H 0.0 **** 0.06
17456 C 25.54719021627315 153.28822809561115 159.30188910009284 C 0.0 **** -0.24
17457 H 26.455482727282345 153.58632959013028 158.77731839517955 H 0.0 **** 0.06
17458 H 25.250758587129013 154.07899360554924 159.991187575695 H 0.0 **** 0.06
17459 H 25.73396741408203 152.36994358210188 159.8582972282006 H 0.0 **** 0.06
17460 H 24.748980127206494 153.1191242493125 158.57884778752697 H 0.0 **** 0.06
17461 C 43.85128894742738 82.75365141661827 147.70062722018372 C 0.0 **** -0.24
17462 H 43.74473347451149 83.83800478813156 147.70231722264265 H 0.0 **** 0.06
17463 H 44.74314253854263 82.47505213438957 148.26268933437194 H 0.0 **** 0.06
17464 H 43.94342013628061 82.39944107536829 146.67353370702858 H 0.0 **** 0.06
17465 H 42.97463849794829 82.301737709824 148.16346211957585 H 0.0 **** 0.06
17466 C 168.01117975016456 29.958792482666198 113.52130588930791 C 0.0 **** -0.24
17467 H 167.27518840893038 29.875214193653576 114.32051210838307 H 0.0 **** 0.06
17468 H 168.78209185932315 30.67248424851786 113.81203904994317 H 0.0 **** 0.06
17469 H 167.5219467188601 30.303489698037794 112.61081479683827 H 0.0 **** 0.06
17470 H 168.4667944340294 28.984405758407817 113.34388839492877 H 0.0 **** 0.06
17471 C 23.592984557900365 97.97690288475576 50.70604357184614 C 0.0 **** -0.24
17472 H 22.71459312889695 98.61910309864359 50.64522781511569 H 0.0 **** 0.06
17473 H 24.212957705789478 98.28811353430447 51.54729765686349 H 0.0 **** 0.06
17474 H 24.166655138585043 98.0579419837301 49.78236942210988 H 0.0 **** 0.06
17475 H 23.278257606269875 96.94365323298379 50.8498116712078 H 0.0 **** 0.06
17476 C 11.31497500696284 120.42402862350917 147.26826778183437 C 0.0 **** -0.24
17477 H 12.180887526463053 119.8346851493134 147.57045476474875 H 0.0 **** 0.06
17478 H 10.73549881413215 119.86722414175117 146.53153695592462 H 0.0 **** 0.06
17479 H 11.651177424120753 121.364826706146 146.83051655830903 H 0.0 **** 0.06
17480 H 10.693913022037457 120.63085573573755 148.13940882749088 H 0.0 **** 0.06
17481 C 151.29176130374395 156.66092939410393 123.65948484412334 C 0.0 **** -0.24
17482 H 151.11443681078555 156.152000214322 124.60691837669609 H 0.0 **** 0.06
17483 H 151.85699614341536 157.57519242553798 123.83984799082222 H 0.0 **** 0.06
17484 H 150.3367945556068 156.90894210600254 123.19600626340659 H 0.0 **** 0.06
17485 H 151.85890480654044 156.00678678369576 122.99699945789675 H 0.0 **** 0.06
17486 C 13.385934656899359 166.15817496410574 10.638445077121823 C 0.0 **** -0.24
17487 H 14.118725358923498 165.5783140635018 10.078244864283732 H 0.0 **** 0.06
17488 H 13.901274642602552 166.87779836349912 11.275492233611985 H 0.0 **** 0.06
17489 H 12.787251457658314 165.48845272156015 11.25555181061533 H 0.0 **** 0.06
17490 H 12.735396207295253 166.6898496506082 9.94312430714551 H 0.0 **** 0.06
17491 C 26.286690946686853 165.3661109195849 113.68024319227015 C 0.0 **** -0.24
17492 H 26.79415648060811 166.27759094798967 113.99613886310351 H 0.0 **** 0.06
17493 H 25.548622377891483 165.60747265913653 112.9160950060421 H 0.0 **** 0.06
17494 H 25.788300633282482 164.9122001525493 114.53730288714578 H 0.0 **** 0.06
17495 H 27.016625539222105 164.66612412494248 113.2728500391658 H 0.0 **** 0.06
17496 C 0.5703155895444922 82.17999427887958 59.38743541177233 C 0.0 **** -0.24
17497 H 1.3497253394454276 81.54040730155997 59.80142951890912 H 0.0 **** 0.06
17498 H 0.9787714455611365 83.17188860508598 59.19406104989153 H 0.0 **** 0.06
17499 H -0.2522137885982545 82.2564932375626 60.09808827904598 H 0.0 **** 0.06
17500 H 0.20506026673697875 81.74950536670724 58.454384467516334 H 0.0 **** 0.06
17501 C 170.27221474078485 75.64901966610218 159.1776032209507 C 0.0 **** -0.24
17502 H 170.96088367476747 75.93086016335818 158.38123445404813 H 0.0 **** 0.06
17503 H 170.0994855201963 74.57236391723796 159.14456905678605 H 0.0 **** 0.06
17504 H 169.326783178835 76.17300430030855 159.0423389960016 H 0.0 **** 0.06
17505 H 170.7033632411671 75.91839173273354 160.14191222332033 H 0.0 **** 0.06
17506 C 142.25661906423537 159.77230305609456 165.931948393748 C 0.0 **** -0.24
17507 H 142.30454778894065 159.84913869775528 167.01871807455697 H 0.0 **** 0.06
17508 H 143.10058923859316 160.3044317788841 165.49312320106958 H 0.0 **** 0.06
17509 H 141.3244371594976 160.21173847621583 165.57817789130772 H 0.0 **** 0.06
17510 H 142.29719426414022 158.72332587434664 165.64117757866978 H 0.0 **** 0.06
17511 C 168.5852207134248 66.38931576149632 90.72962590017383 C 0.0 **** -0.24
17512 H 169.266804595736 66.66126717236024 91.53569849685597 H 0.0 **** 0.06
17513 H 167.56382184745536 66.63608673373518 91.01891402907147 H 0.0 **** 0.06
17514 H 168.66094726283183 65.31953057878161 90.53563536089506 H 0.0 **** 0.06
17515 H 168.85198604831618 66.94128814535947 89.82817155386496 H 0.0 **** 0.06
17516 C 154.89492690796482 94.9703455047441 72.80260981976218 C 0.0 **** -0.24
17517 H 155.5003625310875 95.47881242972787 72.05310115229861 H 0.0 **** 0.06
17518 H 155.47473487607823 94.1630813483647 73.2508692381094 H 0.0 **** 0.06
17519 H 154.00295084540264 94.55789578597322 72.33038303529793 H 0.0 **** 0.06
17520 H 154.60197721421724 95.68021723196742 73.57617416347651 H 0.0 **** 0.06
17521 C 136.18547279921896 150.7594618591458 87.24232446136305 C 0.0 **** -0.24
17522 H 135.7634773692763 151.38867432687672 86.45838139887503 H 0.0 **** 0.06
17523 H 136.03532549496998 149.7102691309542 86.98726054845821 H 0.0 **** 0.06
17524 H 135.68996642871167 150.97712316795216 88.18880224440476 H 0.0 **** 0.06
17525 H 137.25168386105545 150.9628594929023 87.3361835474346 H 0.0 **** 0.06
17526 C 142.36315971461647 34.031530836988395 150.68197697522183 C 0.0 **** -0.24
17527 H 143.4185349916056 33.78120179316727 150.56744915617196 H 0.0 **** 0.06
17528 H 141.9735238683969 33.55894653666681 151.58349245778214 H 0.0 **** 0.06
17529 H 141.80942225953655 33.67192057909932 149.81396170209058 H 0.0 **** 0.06
17530 H 142.2531086112893 35.11238864463897 150.76047089401328 H 0.0 **** 0.06
17531 C 100.31317832303486 149.1613771473774 111.46307728607579 C 0.0 **** -0.24
17532 H 99.91295143301218 149.9389065529209 112.11307545584182 H 0.0 **** 0.06
17533 H 100.88790266293134 149.62128022691152 110.65833489708353 H 0.0 **** 0.06
17534 H 99.49103310539357 148.58393975067378 111.03909437676657 H 0.0 **** 0.06
17535 H 100.96085343357964 148.50203967168363 112.04105153622325 H 0.0 **** 0.06
17536 C 87.29756123554421 102.71526087403441 78.89195240117058 C 0.0 **** -0.24
17537 H 86.52125999290449 103.44163542738934 79.13245931180818 H 0.0 **** 0.06
17538 H 86.88035988240863 101.70865570248847 78.94031858571904 H 0.0 **** 0.06
17539 H 88.11307694924392 102.805576507815 79.60795612327064 H 0.0 **** 0.06
17540 H 87.67325352637508 102.90453105227684 77.8865105674099 H 0.0 **** 0.06
17541 C 88.81848292376235 22.531908260621606 48.522014638228484 C 0.0 **** -0.24
17542 H 88.04917630065772 21.938704057678592 49.016380169793194 H 0.0 **** 0.06
17543 H 88.55223619851138 23.58719328749453 48.57321377250986 H 0.0 **** 0.06
17544 H 88.89695379548361 22.226478233050784 47.47842802602065 H 0.0 **** 0.06
17545 H 89.77500668240181 22.372983137726408 49.019318642670214 H 0.0 **** 0.06
17546 C 115.67181444240666 160.6473865434205 69.76488551831493 C 0.0 **** -0.24
17547 H 114.77605992806826 161.20976971798743 69.50130972162042 H 0.0 **** 0.06
17548 H 116.2723162702147 160.48017926849562 68.87074153344415 H 0.0 **** 0.06
17549 H 115.38415808199068 159.68835792087287 70.19452266246222 H 0.0 **** 0.06
17550 H 116.25335561363968 161.21238327839274 70.49431733773854 H 0.0 **** 0.06
17551 C 122.64324658652964 136.89550766020352 55.31688419773997 C 0.0 **** -0.24
17552 H 122.49175585752477 137.81736228395772 54.75562776121831 H 0.0 **** 0.06
17553 H 123.4802321510279 137.02144298651967 56.003241703964704 H 0.0 **** 0.06
17554 H 122.85913120020166 136.0804747684786 54.626149515594136 H 0.0 **** 0.06
17555 H 121.74059103988932 136.6621451310196 55.88244684426638 H 0.0 **** 0.06
17556 C 22.639763740932437 49.75608342127772 122.23108837025788 C 0.0 **** -0.24
17557 H 22.793679309490344 48.6770094896374 122.21099748254144 H 0.0 **** 0.06
17558 H 22.484362635839332 50.08201970721257 123.26036445872484 H 0.0 **** 0.06
17559 H 21.763703010709058 50.009065156765686 121.63373669049301 H 0.0 **** 0.06
17560 H 23.516663011710087 50.25501393434837 121.81953743358969 H 0.0 **** 0.06
17561 C 11.15150411078156 88.6177492228867 93.13490764441795 C 0.0 **** -0.24
17562 H 10.222396210428201 89.106045941599 93.42917285407546 H 0.0 **** 0.06
17563 H 11.997964362088169 89.18204012693788 93.5268821543674 H 0.0 **** 0.06
17564 H 11.21293992448932 88.58066537859844 92.04666610363597 H 0.0 **** 0.06
17565 H 11.172771134890667 87.60482311494322 93.53537557504413 H 0.0 **** 0.06
17566 C 59.633090485504155 18.222476110651883 63.21444197800682 C 0.0 **** -0.24
17567 H 59.882347409163955 17.77338559848141 64.1756630104752 H 0.0 **** 0.06
17568 H 59.05309131125077 19.130455617579912 63.37740006383113 H 0.0 **** 0.06
17569 H 59.04565028501297 17.51697900489296 62.626677540015905 H 0.0 **** 0.06
17570 H 60.549654113259166 18.467354618839863 62.678650236487144 H 0.0 **** 0.06
17571 C 171.74073211460603 73.6142382137902 24.680463933594297 C 0.0 **** -0.24
17572 H 171.24785176449683 74.01124467804198 23.792325404270798 H 0.0 **** 0.06
17573 H 171.03675849841753 73.00186069493799 25.243485329714474 H 0.0 **** 0.06
17574 H 172.08454313029372 74.4397837149998 25.303245421419547 H 0.0 **** 0.06
17575 H 172.59358209312938 73.00523345512391 24.380043704651 H 0.0 **** 0.06
17576 C 160.60007686672338 9.845592580156733 170.79185159566543 C 0.0 **** -0.24
17577 H 161.26423345332 10.561907584822904 171.27452747244286 H 0.0 **** 0.06
17578 H 160.558210429648 10.053466323573588 169.72214980327186 H 0.0 **** 0.06
17579 H 159.6001297465843 9.932539851277028 171.2185577637984 H 0.0 **** 0.06
17580 H 160.97659714780517 8.835670004912544 170.9516859830222 H 0.0 **** 0.06
17581 C 82.25872326172879 29.932436164548164 171.2134670022553 C 0.0 **** -0.24
17582 H 81.5400022872837 30.205072422848275 171.98613498469552 H 0.0 **** 0.06
17583 H 81.89433274575947 29.061703614942957 170.66857200562976 H 0.0 **** 0.06
17584 H 83.21696299415845 29.696232150695778 171.676369226711 H 0.0 **** 0.06
17585 H 82.38496336687598 30.766563611001118 170.52383956567553 H 0.0 **** 0.06
17586 C 92.0953599815357 158.7963729362488 168.21717948128952 C 0.0 **** -0.24
17587 H 92.89214033195253 159.53979171531046 168.195900998877 H 0.0 **** 0.06
17588 H 92.03997309197268 158.3516696800622 169.2100190696986 H 0.0 **** 0.06
17589 H 92.30451254641537 158.0196254774628 167.48066280463274 H 0.0 **** 0.06
17590 H 91.14617639911182 159.2757792774722 167.97909282885172 H 0.0 **** 0.06
17591 C 10.974793422203987 120.77728056160464 64.62957519481319 C 0.0 **** -0.24
17592 H 10.924118993821025 119.78587645482855 64.18065075447778 H 0.0 **** 0.06
17593 H 11.51854188737724 121.44958293115661 63.964595973820366 H 0.0 **** 0.06
17594 H 11.49214910278448 120.71628976808844 65.58719485655095 H 0.0 **** 0.06
17595 H 9.96576940665193 121.15729132439583 64.78572739052387 H 0.0 **** 0.06
17596 C 41.95095510500124 19.80657727989555 74.5281375106772 C 0.0 **** -0.24
17597 H 41.47210155286078 19.546078653764624 73.58446229393518 H 0.0 **** 0.06
17598 H 42.36619078423455 20.812511535734302 74.45801746756261 H 0.0 **** 0.06
17599 H 42.750847132041386 19.097502561134405 74.7386367752793 H 0.0 **** 0.06
17600 H 41.213698940357276 19.77305129165063 75.33043393204782 H 0.0 **** 0.06
17601 C 159.843524570439 121.58657617611243 93.82169878602173 C 0.0 **** -0.24
17602 H 160.84242509851344 121.20067545714329 94.02421679724753 H 0.0 **** 0.06
17603 H 159.5981280227897 121.42534169730243 92.77157584721337 H 0.0 **** 0.06
17604 H 159.8148986601852 122.65322127407362 94.04231372814377 H 0.0 **** 0.06
17605 H 159.11938297085862 121.0664218696405 94.44889463438443 H 0.0 **** 0.06
17606 C 3.0895301798357693 149.79305223673657 152.52249260158882 C 0.0 **** -0.24
17607 H 4.178379893107653 149.81964740441924 152.5489907765593 H 0.0 **** 0.06
17608 H 2.7619536539030562 149.02402414830777 151.8229344527574 H 0.0 **** 0.06
17609 H 2.710922964013271 150.762776580813 152.20018150431565 H 0.0 **** 0.06
17610 H 2.7077581886800104 149.56681997467513 153.51814479971193 H 0.0 **** 0.06
17611 C 109.91497072362765 94.14641960918652 30.698877077156425 C 0.0 **** -0.24
17612 H 109.97956364188758 94.9034627872307 29.918023354460956 H 0.0 **** 0.06
17613 H 109.53203053344956 93.21870316751148 30.27405924518976 H 0.0 **** 0.06
17614 H 109.24327352181061 94.49227661861903 31.48429541868461 H 0.0 **** 0.06
17615 H 110.90636939047997 93.97219641795806 31.118636752339626 H 0.0 **** 0.06
17616 C 148.93625059014818 4.885055995019684 161.92986615725658 C 0.0 **** -0.24
17617 H 148.76997502165088 5.906181087039613 161.5868294763726 H 0.0 **** 0.06
17618 H 148.55017765098316 4.775700711465106 162.94354525109952 H 0.0 **** 0.06
17619 H 150.0038413461547 4.667302195286311 161.921415046798 H 0.0 **** 0.06
17620 H 148.41884455422633 4.19141467691486 161.26725322706193 H 0.0 **** 0.06
17621 C 15.549425257062772 53.998339974266855 27.874225780809468 C 0.0 **** -0.24
17622 H 15.276634383135999 52.94358137728554 27.891707257230905 H 0.0 **** 0.06
17623 H 16.26052810752347 54.177051397019454 27.068212676082034 H 0.0 **** 0.06
17624 H 16.002497212100685 54.27154587955178 28.82672748474154 H 0.0 **** 0.06
17625 H 14.655735646556849 54.60069835912404 27.71092714781129 H 0.0 **** 0.06
17626 C 149.588574294696 79.15729551312597 129.54725369889994 C 0.0 **** -0.24
17627 H 149.53416143331066 78.30597729625646 128.86864576922042 H 0.0 **** 0.06
17628 H 149.02574129112529 79.99154393782464 129.12761006206287 H 0.0 **** 0.06
17629 H 150.62987177948244 79.44994734896352 129.680030283612 H 0.0 **** 0.06
17630 H 149.1628188557062 78.88109173545087 130.5118857341923 H 0.0 **** 0.06
17631 C 60.01622327097941 7.076585848729337 105.38378078087936 C 0.0 **** -0.24
17632 H 61.08594468139384 7.002977064473441 105.18534675201397 H 0.0 **** 0.06
17633 H 59.536754747132605 6.127996137791939 105.14002125040648 H 0.0 **** 0.06
17634 H 59.586981838874195 7.869425480683816 104.77302040752403 H 0.0 **** 0.06
17635 H 59.858105192361876 7.303267898805416 106.43794447485152 H 0.0 **** 0.06
17636 C 91.32309851296843 131.94863351255813 71.7870524600844 C 0.0 **** -0.24
17637 H 90.46043312472831 131.6740294250118 71.18202094033357 H 0.0 **** 0.06
17638 H 92.2087848026328 132.00278471857905 71.15354662352351 H 0.0 **** 0.06
17639 H 91.47674090816446 131.19864710662281 72.56343420338214 H 0.0 **** 0.06
17640 H 91.14724605978026 132.91955866579602 72.25065946938179 H 0.0 **** 0.06
17641 C 12.308542605892 121.61279917655219 31.997027115145713 C 0.0 **** -0.24
17642 H 12.662447707384928 120.58203466381832 31.998722096427784 H 0.0 **** 0.06
17643 H 12.965071497445479 122.22289853102785 32.617561387491435 H 0.0 **** 0.06
17644 H 11.29445406290094 121.64890112705046 32.395068898813705 H 0.0 **** 0.06
17645 H 12.311911961357026 121.99640860946346 30.97666118012195 H 0.0 **** 0.06
17646 C 61.31314444540544 100.26236317683572 125.01262172905487 C 0.0 **** -0.24
17647 H 61.90296375353415 100.31992829170724 125.92711973872957 H 0.0 **** 0.06
17648 H 61.865222843525316 100.72395836216444 124.19453647377696 H 0.0 **** 0.06
17649 H 60.368369399482674 100.78780664973402 125.15570381750709 H 0.0 **** 0.06
17650 H 61.114396695187565 99.21729790820382 124.77419750118975 H 0.0 **** 0.06
17651 C 90.4914870597234 61.813910058940735 58.73595922574435 C 0.0 **** -0.24
17652 H 90.57563130088818 61.29745819458867 59.69094840861112 H 0.0 **** 0.06
17653 H 91.48397302860872 61.94710469814561 58.30595810644746 H 0.0 **** 0.06
17654 H 90.02848676259839 62.78893848724073 58.889531647549006 H 0.0 **** 0.06
17655 H 89.87663864018134 61.22335612926662 58.0559726875789 H 0.0 **** 0.06
17656 C 146.51870137501314 59.88681149543076 133.46136836174682 C 0.0 **** -0.24
17657 H 147.40805987460936 59.257328101878514 133.4840903970791 H 0.0 **** 0.06
17658 H 146.81260892003144 60.93342231094658 133.54414731758112 H 0.0 **** 0.06
17659 H 145.86780773236666 59.62492111824328 134.29593777141184 H 0.0 **** 0.06
17660 H 145.98781184332384 59.7307562591745 132.52306765750768 H 0.0 **** 0.06
17661 C 44.585773308784866 164.80290155386444 81.74850482989234 C 0.0 **** -0.24
17662 H 44.94205691206302 165.83226541673548 81.80519929760328 H 0.0 **** 0.06
17663 H 43.784815368478846 164.65577726426397 82.47417627971956 H 0.0 **** 0.06
17664 H 45.407035174145705 164.12178084450173 81.97007580203731 H 0.0 **** 0.06
17665 H 44.20850693108602 164.60536856839906 80.74539318585819 H 0.0 **** 0.06
17666 C 170.50383423056218 140.50865988214156 89.69095794213455 C 0.0 **** -0.24
17667 H 170.12638940425578 140.86010373556283 90.65115938044984 H 0.0 **** 0.06
17668 H 171.58517401209497 140.3811106840644 89.75009076501406 H 0.0 **** 0.06
17669 H 170.26614060019762 141.24039216201464 88.91829707412475 H 0.0 **** 0.06
17670 H 170.03794543115725 139.5553854148302 89.44367759740106 H 0.0 **** 0.06
17671 C 2.116603195334207 108.58407985303711 0.7484480251074501 C 0.0 **** -0.24
17672 H 3.0118551924590236 108.87679896008191 0.2006026559708971 H 0.0 **** 0.06
17673 H 1.3673070386323403 108.21313986043839 0.04821019980602159 H 0.0 **** 0.06
17674 H 1.7183986925263 109.44799872699946 1.2819183406617185 H 0.0 **** 0.06
17675 H 2.366540442362904 107.80029353277402 1.4630049098885252 H 0.0 **** 0.06
17676 C 127.69719878695963 49.5910818134187 57.89732553912904 C 0.0 **** -0.24
17677 H 128.63475758313103 49.77802272228918 57.37232379924093 H 0.0 **** 0.06
17678 H 127.75365811551438 48.62922928293146 58.40824458818625 H 0.0 **** 0.06
17679 H 126.87732263810375 49.57355507592423 57.18063171007134 H 0.0 **** 0.06
17680 H 127.52556346769262 50.38098026935337 58.627586377292744 H 0.0 **** 0.06
17681 C 68.1584332719381 129.2240764375504 48.7668365773911 C 0.0 **** -0.24
17682 H 67.76448729100106 129.96108975834798 48.06627312991496 H 0.0 **** 0.06
17683 H 68.28861259719963 129.68646923971366 49.745157801836285 H 0.0 **** 0.06
17684 H 69.11905671961135 128.85799364025854 48.40588625629208 H 0.0 **** 0.06
17685 H 67.45856349899836 128.39190505186264 48.84746095973388 H 0.0 **** 0.06
17686 C 61.42344028835788 77.49858584988237 111.6244408542264 C 0.0 **** -0.24
17687 H 60.65369440092927 77.96704897416566 112.2375474912742 H 0.0 **** 0.06
17688 H 61.02328698208285 77.29843382344099 110.62977119887734 H 0.0 **** 0.06
17689 H 61.73614594599644 76.56158498862344 112.08603782447409 H 0.0 **** 0.06
17690 H 62.280535479080214 78.16761155864387 111.54303667427627 H 0.0 **** 0.06
17691 C 116.0688705014787 53.943270763294564 63.64502122748857 C 0.0 **** -0.24
17692 H 116.97183638453993 54.16525729476798 63.0752240599129 H 0.0 **** 0.06
17693 H 115.22414708048558 54.47364035050664 63.20482508652256 H 0.0 **** 0.06
17694 H 116.20233446765087 54.26494223743465 64.67691509861572 H 0.0 **** 0.06
17695 H 115.87865606886129 52.870995538511096 63.619556445762726 H 0.0 **** 0.06
17696 C 58.68427579586718 121.88651255208714 58.5495862655153 C 0.0 **** -0.24
17697 H 58.77155755659618 120.91818472279161 58.0566265314539 H 0.0 **** 0.06
17698 H 59.65281993101529 122.17495350136485 58.9570371698411 H 0.0 **** 0.06
17699 H 57.95460506358474 121.81816849271561 59.356732417226056 H 0.0 **** 0.06
17700 H 58.35604070325378 122.63337258412167 57.82627719006305 H 0.0 **** 0.06
17701 C 37.43828679227505 158.09505572083685 40.217864281729206 C 0.0 **** -0.24
17702 H 38.143542931137915 158.73442996431947 40.749403139774174 H 0.0 **** 0.06
17703 H 36.490104189551715 158.07559491460526 40.75507672741631 H 0.0 **** 0.06
17704 H 37.84123134632381 157.0842845526946 40.15417349446197 H 0.0 **** 0.06
17705 H 37.27901484877242 158.48640204394357 39.21325606019326 H 0.0 **** 0.06
17706 C 108.88478663277652 43.54964262248265 33.98231746426802 C 0.0 **** -0.24
17707 H 109.85319752406457 43.36051301529341 33.51867478401215 H 0.0 **** 0.06
17708 H 108.88984972601486 43.16717910479511 35.00282184810402 H 0.0 **** 0.06
17709 H 108.10412498455975 43.048138186663266 33.40985969980835 H 0.0 **** 0.06
17710 H 108.69233913325161 44.62260754351058 33.99622551311134 H 0.0 **** 0.06
17711 C 99.18841406513494 81.17417660440401 167.6673281834016 C 0.0 **** -0.24
17712 H 100.00014013013839 81.49299408960218 168.3202373318431 H 0.0 **** 0.06
17713 H 98.23308493741882 81.44030356606754 168.12037222149587 H 0.0 **** 0.06
17714 H 99.23644361554238 80.09450291889459 167.52726724443045 H 0.0 **** 0.06
17715 H 99.28326908694754 81.67124263130592 166.70128309717194 H 0.0 **** 0.06
17716 C 130.7654093399503 89.69991525261412 100.22651547398505 C 0.0 **** -0.24
17717 H 130.4126079243611 88.67628638279345 100.35233790214812 H 0.0 **** 0.06
17718 H 129.92724133466686 90.38900135505881 100.33623766733677 H 0.0 **** 0.06
17719 H 131.20207667814628 89.81429379863403 99.23436308162223 H 0.0 **** 0.06
17720 H 131.51878822292775 89.9204510219565 100.98302484594655 H 0.0 **** 0.06
17721 C 4.501733147571883 55.690202101626284 145.92080830435646 C 0.0 **** -0.24
17722 H 4.026088902752008 56.66517893248991 146.0284741078155 H 0.0 **** 0.06
17723 H 5.5314807403649695 55.823140546605146 145.5906622448893 H 0.0 **** 0.06
17724 H 3.9562126699262876 55.099744099592385 145.18467995837256 H 0.0 **** 0.06
17725 H 4.490772442543943 55.1743391812459 146.88076011839556 H 0.0 **** 0.06
17726 C 88.41764167919479 71.92320016499409 141.91213042403322 C 0.0 **** -0.24
17727 H 87.85585331699576 71.90837346584281 142.84641154179096 H 0.0 **** 0.06
17728 H 89.4561619993878 71.65898371706169 142.10932924151936 H 0.0 **** 0.06
17729 H 88.37136844531125 72.92215400700232 141.47809447652418 H 0.0 **** 0.06
17730 H 87.98461172346805 71.20398569518979 141.2173140644312 H 0.0 **** 0.06
17731 C 50.920166112910294 31.34988673096504 139.75958979455993 C 0.0 **** -0.24
17732 H 51.90805039633028 31.261089079142266 140.21141586760527 H 0.0 **** 0.06
17733 H 50.16608268299339 30.99779967241909 140.46337745001256 H 0.0 **** 0.06
17734 H 50.880187292177425 30.746522168187653 138.85213670394518 H 0.0 **** 0.06
17735 H 50.72676218358589 32.39368441083957 139.51064094290012 H 0.0 **** 0.06
17736 C 3.364350933495359 121.99691251900555 147.5464228527884 C 0.0 **** -0.24
17737 H 3.4008269409983427 123.0552775898521 147.80118551557214 H 0.0 **** 0.06
17738 H 3.3855324349254943 121.88291284119515 146.4619609394087 H 0.0 **** 0.06
17739 H 2.44566754140277 121.5599299024916 147.93925899562342 H 0.0 **** 0.06
17740 H 4.223888425986843 121.48874062421424 147.98288338214473 H 0.0 **** 0.06
17741 C 104.5876767115185 71.06994154207447 18.30419605083643 C 0.0 **** -0.24
17742 H 104.38172308608102 70.8189592483694 17.263599980532383 H 0.0 **** 0.06
17743 H 105.09310863868808 72.03445659219663 18.352533093332298 H 0.0 **** 0.06
17744 H 105.22559972620894 70.30180396693984 18.74372436125195 H 0.0 **** 0.06
17745 H 103.64958623718945 71.12196239088304 18.857847846045964 H 0.0 **** 0.06
17746 C 119.76231744923032 27.742423011466798 109.50497587179515 C 0.0 **** -0.24
17747 H 120.46367903470343 27.384271409275073 108.75172722343723 H 0.0 **** 0.06
17748 H 119.19066421766783 26.902268027959394 109.8981810955238 H 0.0 **** 0.06
17749 H 119.08233404850361 28.465604924687312 109.05394959820788 H 0.0 **** 0.06
17750 H 120.31279684751522 28.219736192394436 110.31563470396824 H 0.0 **** 0.06
17751 C 105.3170266785364 11.206658280494935 57.27634196951905 C 0.0 **** -0.24
17752 H 106.23488781583785 11.331644652953258 57.8502692358617 H 0.0 **** 0.06
17753 H 104.94719156214967 12.184444190398835 56.966435680519666 H 0.0 **** 0.06
17754 H 104.56721872624092 10.713312926253082 57.89572360694403 H 0.0 **** 0.06
17755 H 105.51892246532043 10.59786779587651 56.395302010927054 H 0.0 **** 0.06
17756 C 21.304482340230003 129.53411356432514 58.869263546313206 C 0.0 **** -0.24
17757 H 20.99943021978047 129.40582499220193 59.908546218913145 H 0.0 **** 0.06
17758 H 20.674818031884918 130.2875525920054 58.39583807137694 H 0.0 **** 0.06
17759 H 21.19779449846284 128.58643448377148 58.340644333224006 H 0.0 **** 0.06
17760 H 22.34580835684922 129.8551874532023 58.83399477141141 H 0.0 **** 0.06
17761 C 88.37192592747665 142.02956252444412 27.307247108271667 C 0.0 **** -0.24
17762 H 89.3525814828004 142.50099226529102 27.375853822515637 H 0.0 **** 0.06
17763 H 87.608533127514 142.73083656106036 27.642854494897392 H 0.0 **** 0.06
17764 H 88.3521679641805 141.14052616684447 27.936848678188483 H 0.0 **** 0.06
17765 H 88.17732417495913 141.7459920130215 26.272680956621514 H 0.0 **** 0.06
17766 C 101.98628695458618 21.817798970177442 159.05833190113387 C 0.0 **** -0.24
17767 H 101.26214174258533 21.772547066494155 159.871753785396 H 0.0 **** 0.06
17768 H 102.30710280777404 20.807008035636407 158.80285565973836 H 0.0 **** 0.06
17769 H 102.84854655139148 22.40489906679921 159.37248316220763 H 0.0 **** 0.06
17770 H 101.52536075695161 22.284586993166563 158.18777565940627 H 0.0 **** 0.06
17771 C 75.23806477508731 25.992657804169937 154.6348798411493 C 0.0 **** -0.24
17772 H 74.18282186873388 26.25079462406881 154.7299167108065 H 0.0 **** 0.06
17773 H 75.66959990391966 26.533101835353442 153.79172096053918 H 0.0 **** 0.06
17774 H 75.33597345872954 24.921063263990575 154.46880111589644 H 0.0 **** 0.06
17775 H 75.76224944243354 26.2685044148489 155.55025041386665 H 0.0 **** 0.06
17776 C 13.780720875913346 160.6164735162402 4.047846922856422 C 0.0 **** -0.24
17777 H 12.811619820012787 160.42421370188197 4.507449437406166 H 0.0 **** 0.06
17778 H 13.998204533547096 161.6845270473866 4.092899704841329 H 0.0 **** 0.06
17779 H 13.76090425688465 160.29297696338705 3.007785660378346 H 0.0 **** 0.06
17780 H 14.552890156952799 160.06558948995388 4.585113694218023 H 0.0 **** 0.06
17781 C 55.851061097113984 56.904108787314186 156.5110852219239 C 0.0 **** -0.24
17782 H 55.06360823458192 57.22843993757772 157.1908009393214 H 0.0 **** 0.06
17783 H 56.792585502404165 57.37415600331866 156.7944817347423 H 0.0 **** 0.06
17784 H 55.59232461115897 57.19237007377623 155.49221670861536 H 0.0 **** 0.06
17785 H 55.95460449904476 55.81990149988914 156.56630785871116 H 0.0 **** 0.06
17786 C 74.99531359338499 130.83123605732578 167.2802234497393 C 0.0 **** -0.24
17787 H 75.43154510006889 131.20697922564747 166.35439282583576 H 0.0 **** 0.06
17788 H 75.41414215432866 131.376736280039 168.12637849032075 H 0.0 **** 0.06
17789 H 75.22092814031231 129.77044945455714 167.38333508002634 H 0.0 **** 0.06
17790 H 73.9146816760757 130.97147674939592 167.2555578687207 H 0.0 **** 0.06
17791 C 55.799519183247384 20.231040692776723 128.61847587017076 C 0.0 **** -0.24
17792 H 56.54248654170655 20.99836183727951 128.83543887064366 H 0.0 **** 0.06
17793 H 55.20096129131605 20.04322068349731 129.50998822893806 H 0.0 **** 0.06
17794 H 56.30338621823984 19.312032079760122 128.318295294104 H 0.0 **** 0.06
17795 H 55.151694423647996 20.571312678838083 127.81064096119431 H 0.0 **** 0.06
17796 C 164.04710454773172 145.99888766915439 129.19252597131103 C 0.0 **** -0.24
17797 H 164.39215614136688 146.8886420524978 129.71883739013663 H 0.0 **** 0.06
17798 H 163.94116600121882 146.22307110086456 128.1301093594305 H 0.0 **** 0.06
17799 H 163.0831889431028 145.68863693080698 129.5964360894415 H 0.0 **** 0.06
17800 H 164.7715292648616 145.19509548741428 129.32336228008717 H 0.0 **** 0.06
17801 C 123.61544245945962 158.5625245749132 68.29925592929055 C 0.0 **** -0.24
17802 H 123.82208759621366 157.9433823536502 69.17243339854778 H 0.0 **** 0.06
17803 H 123.98697591572468 159.57232671470746 68.47580829224927 H 0.0 **** 0.06
17804 H 122.54108014647105 158.59527380166665 68.12333764562413 H 0.0 **** 0.06
17805 H 124.11449206811758 158.1387736270097 67.4278256081642 H 0.0 **** 0.06
17806 C 40.123293778681415 13.621536550114513 114.05873942335842 C 0.0 **** -0.24
17807 H 39.441187603600724 13.294770919390032 114.84343144235567 H 0.0 **** 0.06
17808 H 41.030799117574446 13.019030072623423 114.09318038860516 H 0.0 **** 0.06
17809 H 40.377293116373664 14.670511326630958 114.21054335702166 H 0.0 **** 0.06
17810 H 39.643900197715226 13.501089422098062 113.08713483528408 H 0.0 **** 0.06
17811 C 170.32501691571628 50.265782450091365 96.03235796221767 C 0.0 **** -0.24
17812 H 171.20100112102415 50.786996178650654 95.64562534217336 H 0.0 **** 0.06
17813 H 170.24256422864516 49.29003704468309 95.55349196249824 H 0.0 **** 0.06
17814 H 169.4309119617759 50.85291009430158 95.8206773786307 H 0.0 **** 0.06
17815 H 170.42706275945022 50.135516222812555 97.10900112374864 H 0.0 **** 0.06
17816 C 94.47494959042896 104.68668230234499 153.97254544548827 C 0.0 **** -0.24
17817 H 94.87024939762532 103.74056891139682 153.60252557489218 H 0.0 **** 0.06
17818 H 94.50207776652121 104.69039841491076 155.06288139322146 H 0.0 **** 0.06
17819 H 93.44655066250957 104.8080387898643 153.6336613840732 H 0.0 **** 0.06
17820 H 95.08335756666057 105.50771108820908 153.59086664960518 H 0.0 **** 0.06
17821 C 118.36880036414243 104.10140046809181 42.40488715661195 C 0.0 **** -0.24
17822 H 117.45235400451207 104.62597854016084 42.135599046160365 H 0.0 **** 0.06
17823 H 118.72895196891798 104.47041022136295 43.365589935221806 H 0.0 **** 0.06
17824 H 119.1260401767367 104.27738215220879 41.64083382098693 H 0.0 **** 0.06
17825 H 118.16716023985 103.03265923741861 42.47843735718624 H 0.0 **** 0.06
17826 C 62.138991125816915 140.8623755633974 67.0181589926907 C 0.0 **** -0.24
17827 H 61.67761931127558 139.89178547065012 66.83177994680695 H 0.0 **** 0.06
17828 H 63.097010988850656 140.91407290474262 66.4998805545384 H 0.0 **** 0.06
17829 H 62.297167452138126 140.99011077499367 68.08883968229705 H 0.0 **** 0.06
17830 H 61.48371338558809 141.65159939529184 66.64988734657169 H 0.0 **** 0.06
17831 C 157.0847193952223 26.685295046555602 104.34369330181971 C 0.0 **** -0.24
17832 H 157.73284467361793 26.08885285510012 104.9856220475713 H 0.0 **** 0.06
17833 H 156.37338704696896 27.236811566101835 104.95916062677205 H 0.0 **** 0.06
17834 H 156.54408762341467 26.028425207124556 103.66279869459626 H 0.0 **** 0.06
17835 H 157.6888303545672 27.386860697596013 103.76856047710643 H 0.0 **** 0.06
17836 C 128.8267946575879 123.93844064081344 28.231583831617854 C 0.0 **** -0.24
17837 H 129.07381160029001 124.50738588669194 29.127651970604532 H 0.0 **** 0.06
17838 H 127.79471984761318 123.59170628057859 28.294505133676438 H 0.0 **** 0.06
17839 H 129.49423092491233 123.08139604229513 28.148960986737706 H 0.0 **** 0.06
17840 H 128.94231563663314 124.57544218177384 27.354274795782587 H 0.0 **** 0.06
17841 C 56.430732271913485 9.782343259780035 156.0845247327098 C 0.0 **** -0.24
17842 H 57.42333729385636 9.98213356642389 155.68019651895574 H 0.0 **** 0.06
17843 H 56.50830471134864 9.584647194454483 157.15444529784529 H 0.0 **** 0.06
17844 H 56.003611885748896 8.912802982567179 155.58399691750208 H 0.0 **** 0.06
17845 H 55.79000349256005 10.648011725847972 155.92010791197313 H 0.0 **** 0.06
17846 C 118.14735368876111 124.46417509699879 32.925057069141616 C 0.0 **** -0.24
17847 H 118.03115006403357 125.4068122892362 33.459779448942825 H 0.0 **** 0.06
17848 H 119.19415396070818 124.16034146404203 32.94632939583441 H 0.0 **** 0.06
17849 H 117.82631170801238 124.59100522332173 31.891696377249303 H 0.0 **** 0.06
17850 H 117.5366839754841 123.6981029456289 33.40317436955736 H 0.0 **** 0.06
17851 C 146.108036215389 161.9424719466371 142.4700006205006 C 0.0 **** -0.24
17852 H 146.26557744872895 162.8539032568033 143.0479564599496 H 0.0 **** 0.06
17853 H 146.52462306413608 161.09276998412724 143.01294925492948 H 0.0 **** 0.06
17854 H 146.603632471744 162.03527177872743 141.50440511255587 H 0.0 **** 0.06
17855 H 145.04001127416385 161.7896309539782 142.31872435688214 H 0.0 **** 0.06
17856 C 127.03790370662767 144.67884400627705 116.14173156854562 C 0.0 **** -0.24
17857 H 126.04764745684531 144.72569962676977 115.68875552891794 H 0.0 **** 0.06
17858 H 127.52181903520449 143.74330582243473 115.85976442693473 H 0.0 **** 0.06
17859 H 126.94393066170852 144.72716088872173 117.22643877374765 H 0.0 **** 0.06
17860 H 127.63821767275226 145.51920968718184 115.79196754458246 H 0.0 **** 0.06
17861 C 80.64090989412392 87.54979064960209 45.4049669608475 C 0.0 **** -0.24
17862 H 80.59992199541213 86.96517697433781 46.32493982749905 H 0.0 **** 0.06
17863 H 80.75939551756184 86.87895982762079 44.55386746061612 H 0.0 **** 0.06
17864 H 81.4876899069613 88.23558888667911 45.44859728525945 H 0.0 **** 0.06
17865 H 79.71749706053068 88.11824915723587 45.29526353149569 H 0.0 **** 0.06
17866 C 37.170375904300386 93.1504289017825 15.954440305964681 C 0.0 **** -0.24
17867 H 37.11408022957289 93.85633133886876 16.783330372967555 H 0.0 **** 0.06
17868 H 36.41158191486301 92.37846353203693 16.083251562447515 H 0.0 **** 0.06
17869 H 38.15792339333416 92.69013991613761 15.9362421381486 H 0.0 **** 0.06
17870 H 36.997448943216796 93.67734759941212 15.016796930963892 H 0.0 **** 0.06
17871 C 87.44860907574724 70.3387269890351 33.14881068451244 C 0.0 **** -0.24
17872 H 87.08048510681692 71.36330480740547 33.099951598126324 H 0.0 **** 0.06
17873 H 88.11855880050086 70.15420480479614 32.30823281629063 H 0.0 **** 0.06
17874 H 86.60687537392846 69.64824149578095 33.10139414759942 H 0.0 **** 0.06
17875 H 87.98828602964818 70.19070476719708 34.08310471501848 H 0.0 **** 0.06
17876 C 62.81591810675884 139.3151621517322 82.36968452255348 C 0.0 **** -0.24
17877 H 63.7740026466751 139.50035947328655 81.88454007278293 H 0.0 **** 0.06
17878 H 62.26223542885765 140.25013356914633 82.44930296975309 H 0.0 **** 0.06
17879 H 62.9866682729338 138.90772760435286 83.36680271600011 H 0.0 **** 0.06
17880 H 62.24235110319525 138.6009804168772 81.77927236685457 H 0.0 **** 0.06
17881 C 40.22898363087228 43.9891590295381 151.37380151794383 C 0.0 **** -0.24
17882 H 41.10317506226522 44.37632581925128 150.85021254987984 H 0.0 **** 0.06
17883 H 40.340956235887575 44.1658681417091 152.44471294313507 H 0.0 **** 0.06
17884 H 40.13960566856622 42.91923897080048 151.18972601482204 H 0.0 **** 0.06
17885 H 39.33547808016823 44.497335245819144 151.01247628700298 H 0.0 **** 0.06
17886 C 67.0514265710446 38.67375986004734 65.91765842978131 C 0.0 **** -0.24
17887 H 66.94457542606493 38.010180243258105 65.05943811106596 H 0.0 **** 0.06
17888 H 66.61878984505849 38.20073014245054 66.79907974059205 H 0.0 **** 0.06
17889 H 66.53328314700944 39.61193137706394 65.71668876133481 H 0.0 **** 0.06
17890 H 68.10861406036126 38.8728415566913 66.09333220860424 H 0.0 **** 0.06
17891 C 19.73958108815234 50.23556070782891 37.61288173510361 C 0.0 **** -0.24
17892 H 20.13865402832679 49.45857513474759 36.96195596924723 H 0.0 **** 0.06
17893 H 18.98656831729636 49.8046371854531 38.2735782627708 H 0.0 **** 0.06
17894 H 19.286208903839615 51.01971658380725 37.00652176763771 H 0.0 **** 0.06
17895 H 20.546952453398482 50.65957187424948 38.21086018400115 H 0.0 **** 0.06
17896 C 130.45303505761615 13.356255808803382 70.73140973353742 C 0.0 **** -0.24
17897 H 130.2244215830658 12.376267634766663 70.3127401286356 H 0.0 **** 0.06
17898 H 131.53121766581182 13.453042388757353 70.862286892324 H 0.0 **** 0.06
17899 H 129.95933064042003 13.46268986708435 71.69738485064335 H 0.0 **** 0.06
17900 H 130.09809255358184 14.13265904620448 70.0542354606826 H 0.0 **** 0.06
17901 C 81.50703011671285 113.18304881380183 71.96664683276175 C 0.0 **** -0.24
17902 H 80.48800524380724 113.15121221890206 71.579739927776 H 0.0 **** 0.06
17903 H 82.18995609168911 113.46799468482257 71.16490297604044 H 0.0 **** 0.06
17904 H 81.78240936342715 112.19869592243364 72.34659665827196 H 0.0 **** 0.06
17905 H 81.56762960340461 113.9140703816553 72.77204072153042 H 0.0 **** 0.06
17906 C 79.26013636477262 121.21790838235722 104.41300934240331 C 0.0 **** -0.24
17907 H 78.3092385456523 121.3498993295535 104.93208833002546 H 0.0 **** 0.06
17908 H 79.79001599877279 122.16945281208396 104.38085451780563 H 0.0 **** 0.06
17909 H 79.07343489755351 120.8710101849473 103.39707215632762 H 0.0 **** 0.06
17910 H 79.86342977875108 120.48167216251923 104.94352178528067 H 0.0 **** 0.06
17911 C 122.95803068058171 171.95033470673917 55.38585138654919 C 0.0 **** -0.24
17912 H 122.493006080583 171.8093428667559 54.41060393937505 H 0.0 **** 0.06
17913 H 122.22646279587812 171.7517770457258 56.16964440384653 H 0.0 **** 0.06
17914 H 123.31480333331982 172.97622066586632 55.474058197912186 H 0.0 **** 0.06
17915 H 123.79798500383237 171.26345947534494 55.49039965541121 H 0.0 **** 0.06
17916 C 21.769684296642197 102.25597824234012 29.652781738187727 C 0.0 **** -0.24
17917 H 21.59497187489694 101.21459161580705 29.92074369966788 H 0.0 **** 0.06
17918 H 21.405287130239657 102.43664305079128 28.64081031740966 H 0.0 **** 0.06
17919 H 22.838384403880845 102.4682004968671 29.697245311318397 H 0.0 **** 0.06
17920 H 21.24067599654863 102.90481141760327 30.350730812511614 H 0.0 **** 0.06
17921 C 130.56306934797874 172.03811244650527 6.892772772608339 C 0.0 **** -0.24
17922 H 130.29436433343477 170.986153700588 6.800731616572818 H 0.0 **** 0.06
17923 H 131.59877825956653 172.1778927915939 6.583147692050119 H 0.0 **** 0.06
17924 H 130.44745432592154 172.35382146190372 7.929195535959991 H 0.0 **** 0.06
17925 H 129.9095938198988 172.63643256639895 6.2565259639534645 H 0.0 **** 0.06
17926 C 158.31667706172635 18.072023942724364 157.84238651979996 C 0.0 **** -0.24
17927 H 158.61940887296316 18.959585271329047 158.3966621573753 H 0.0 **** 0.06
17928 H 157.77840456621425 17.39575578887684 158.50667809498086 H 0.0 **** 0.06
17929 H 159.2006556449506 17.56938805032798 157.4505610551736 H 0.0 **** 0.06
17930 H 157.66768388506335 18.362810527883198 157.01682054341188 H 0.0 **** 0.06
17931 C 20.155447377108743 47.23615147053869 68.4618142813418 C 0.0 **** -0.24
17932 H 19.113724527219347 47.557109972756905 68.44571027927947 H 0.0 **** 0.06
17933 H 20.431214414069416 46.95184620116561 69.47721481065021 H 0.0 **** 0.06
17934 H 20.792498000302544 48.054234984252844 68.12759426901937 H 0.0 **** 0.06
17935 H 20.282378142978757 46.381471771096074 67.79705162587172 H 0.0 **** 0.06
17936 C 73.52437293762823 131.40799032213278 122.79890766056357 C 0.0 **** -0.24
17937 H 73.5333065602014 130.77615312130376 121.91165962168407 H 0.0 **** 0.06
17938 H 73.66121472141953 130.79023395848702 123.6869693766246 H 0.0 **** 0.06
17939 H 72.56975749305366 131.93106735929507 122.86282929911994 H 0.0 **** 0.06
17940 H 74.333430525916 132.1360428632484 122.73494268069805 H 0.0 **** 0.06
17941 C 120.18937778491107 83.86233128426653 74.99696902926433 C 0.0 **** -0.24
17942 H 119.30133266834827 83.40793592512034 75.43693258380813 H 0.0 **** 0.06
17943 H 120.72323599100315 84.42885366098483 75.76020556408807 H 0.0 **** 0.06
17944 H 119.89260639405921 84.52990460202994 74.18821518300692 H 0.0 **** 0.06
17945 H 120.8397082948822 83.0802992705826 74.6029342733217 H 0.0 **** 0.06
17946 C 12.535719343084736 149.0996469912174 95.90553343195594 C 0.0 **** -0.24
17947 H 12.739578706778907 149.71435831265094 96.7815976436705 H 0.0 **** 0.06
17948 H 13.435827589178892 149.02888233490484 95.2941573461062 H 0.0 **** 0.06
17949 H 11.733619723400189 149.55342716254364 95.32241939959007 H 0.0 **** 0.06
17950 H 12.23382713864703 148.1024320701584 96.22481804925422 H 0.0 **** 0.06
17951 C 47.94423972090169 48.54903923873283 101.46473630820302 C 0.0 **** -0.24
17952 H 47.11131657669472 47.850221146696555 101.38582178732585 H 0.0 **** 0.06
17953 H 48.84610587461157 48.08505416638647 101.06467069475713 H 0.0 **** 0.06
17954 H 48.10219652335422 48.80740257639755 102.51231506316049 H 0.0 **** 0.06
17955 H 47.71576552155409 49.45184150110916 100.89809726373551 H 0.0 **** 0.06
17956 C 159.6514671546589 114.03221665175727 85.9357766663151 C 0.0 **** -0.24
17957 H 160.1763975632694 114.98209458692901 86.03571240146564 H 0.0 **** 0.06
17958 H 160.27030447313376 113.33319324519192 85.37209779535806 H 0.0 **** 0.06
17959 H 158.71025103426064 114.19112036498501 85.40968636584905 H 0.0 **** 0.06
17960 H 159.450161875717 113.62253572602947 86.92627398904926 H 0.0 **** 0.06
17961 C 18.1637170842681 160.4268986905156 92.071920754621 C 0.0 **** -0.24
17962 H 17.679444627942388 160.37146257687593 91.09666067250919 H 0.0 **** 0.06
17963 H 17.96644095810317 161.40036346121744 92.52112745743165 H 0.0 **** 0.06
17964 H 19.2385764484861 160.2923716082632 91.95120210130085 H 0.0 **** 0.06
17965 H 17.769921135656155 159.64160377634687 92.71744832482926 H 0.0 **** 0.06
17966 C 122.55764425310335 141.51719313591747 105.77825193322198 C 0.0 **** -0.24
17967 H 123.05918245290033 140.86062137320556 106.49003853895738 H 0.0 **** 0.06
17968 H 122.98213790687589 141.36667613742935 104.78565384937582 H 0.0 **** 0.06
17969 H 122.69939928234552 142.55501065981963 106.08121646477429 H 0.0 **** 0.06
17970 H 121.49332527120757 141.28587233084886 105.7592010989176 H 0.0 **** 0.06
17971 C 115.93869023979966 127.73910113265998 113.30553051780836 C 0.0 **** -0.24
17972 H 116.80180969873953 127.07316613258382 113.28569164584013 H 0.0 **** 0.06
17973 H 116.15616993262213 128.5975443346968 113.94123488604902 H 0.0 **** 0.06
17974 H 115.07589274240684 127.20263830680534 113.6999633907235 H 0.0 **** 0.06
17975 H 115.72200639922141 128.08180655896115 112.29375223735244 H 0.0 **** 0.06
17976 C 112.75637815422022 4.323440917209183 109.80025445110306 C 0.0 **** -0.24
17977 H 112.84375258363738 3.3593049253379803 110.30233284740854 H 0.0 **** 0.06
17978 H 113.73570209033196 4.630847211408906 109.4333427639952 H 0.0 **** 0.06
17979 H 112.38182285584875 5.066868137417487 110.50443021205393 H 0.0 **** 0.06
17980 H 112.064539136903 4.235143326358269 108.9620727767213 H 0.0 **** 0.06
17981 C 111.18843171941396 114.09677283585819 18.057382554935828 C 0.0 **** -0.24
17982 H 110.31413435816404 113.79442661112091 18.633707173110736 H 0.0 **** 0.06
17983 H 111.95522512572231 114.47470131709215 18.73276695498882 H 0.0 **** 0.06
17984 H 110.90650731712037 114.87902689066618 17.352524119746647 H 0.0 **** 0.06
17985 H 111.57713270311487 113.23741348497808 17.509458943509287 H 0.0 **** 0.06
17986 C 168.60376026503752 151.42632851237624 21.42464147899625 C 0.0 **** -0.24
17987 H 168.38331449422995 151.7178848245009 22.45153425052939 H 0.0 **** 0.06
17988 H 169.50511603720676 150.8139003264904 21.406211419820806 H 0.0 **** 0.06
17989 H 168.75748962578123 152.3188277123579 20.81771260408476 H 0.0 **** 0.06
17990 H 167.7671291477571 150.85327785000783 21.023022829261265 H 0.0 **** 0.06
17991 C 67.16887901334063 25.41617601989072 48.248921824553875 C 0.0 **** -0.24
17992 H 67.5010996650261 24.55191185913258 48.823676617361045 H 0.0 **** 0.06
17993 H 67.29901246359191 25.2172018783832 47.185184187700486 H 0.0 **** 0.06
17994 H 67.75892024470132 26.28822388001194 48.53063809415009 H 0.0 **** 0.06
17995 H 66.11567681622765 25.60848938295549 48.457231520850044 H 0.0 **** 0.06
17996 C 77.2437573520455 152.5822024505046 125.253792779012 C 0.0 **** -0.24
17997 H 77.42703221939453 152.09031530184166 124.29869093549382 H 0.0 **** 0.06
17998 H 76.68675631721206 151.91082563631218 125.90801768747056 H 0.0 **** 0.06
17999 H 76.66477357584733 153.49098658025528 125.08836186314286 H 0.0 **** 0.06
18000 H 78.19524223780179 152.8371927716497 125.71961206991176 H 0.0 **** 0.06
18001 C 168.35211769434463 67.04071174587385 13.370912270791507 C 0.0 **** -0.24
18002 H 169.37050110432392 66.65583736154159 13.321081429008586 H 0.0 **** 0.06
18003 H 167.6469862704622 66.21068826273972 13.323405576511107 H 0.0 **** 0.06
18004 H 168.17694318481853 67.71426985534796 12.531431730759152 H 0.0 **** 0.06
18005 H 168.21429452420506 67.58269855088997 14.30614392254813 H 0.0 **** 0.06
18006 C 161.27503835217027 128.28766866340644 120.17447901672548 C 0.0 **** -0.24
18007 H 162.269227359702 128.61717206844116 119.87453422808187 H 0.0 **** 0.06
18008 H 160.7140449492643 129.13634677541555 120.56579736409921 H 0.0 **** 0.06
18009 H 161.36380335176304 127.52334674030661 120.94677298211892 H 0.0 **** 0.06
18010 H 160.75359533034248 127.87349377363316 119.31243407720814 H 0.0 **** 0.06
18011 C 20.546456190277482 95.0245144735531 15.505104639188545 C 0.0 **** -0.24
18012 H 21.427432768061955 95.63087985663816 15.718279469888273 H 0.0 **** 0.06
18013 H 20.640880722272712 94.583542259425 14.511926535390103 H 0.0 **** 0.06
18014 H 19.656763913677366 95.65373632557828 15.540257389138674 H 0.0 **** 0.06
18015 H 20.461645796731013 94.23235026566547 16.248170057096758 H 0.0 **** 0.06
18016 C 34.865677915362696 93.10857103120938 48.16231391772925 C 0.0 **** -0.24
18017 H 35.53959525208897 93.09449797816063 47.30625344538572 H 0.0 **** 0.06
18018 H 34.19708445440125 92.24871157671404 48.11214710049944 H 0.0 **** 0.06
18019 H 34.277964761367514 94.02727839243752 48.147882668310785 H 0.0 **** 0.06
18020 H 35.44747917274147 93.06460119884679 49.08305119731955 H 0.0 **** 0.06
18021 C 157.57451804134286 97.49824839354082 8.238950570926193 C 0.0 **** -0.24
18022 H 158.61724391523228 97.60274557743435 7.938329067101243 H 0.0 **** 0.06
18023 H 156.96759483131035 97.25898264478701 7.365553002412895 H 0.0 **** 0.06
18024 H 157.22725328449036 98.4326809367605 8.678009965451565 H 0.0 **** 0.06
18025 H 157.48767940907845 96.69720222109262 8.97281381248893 H 0.0 **** 0.06
18026 C 171.13600962890172 23.67158061104314 151.72917933007406 C 0.0 **** -0.24
18027 H 170.86098348224806 22.761703665653272 151.19409915283924 H 0.0 **** 0.06
18028 H 171.16848979655722 23.46660166756854 152.79951753504247 H 0.0 **** 0.06
18029 H 170.39757446520196 24.447124440257113 151.52908328706692 H 0.0 **** 0.06
18030 H 172.11654599324135 24.007667457815018 151.39283391419985 H 0.0 **** 0.06
18031 C 35.11817299855278 142.84842754780522 148.29596381718133 C 0.0 **** -0.24
18032 H 34.08456767923566 142.5444680845686 148.12972940153836 H 0.0 **** 0.06
18033 H 35.163069731297284 143.53559643808006 149.14209468291855 H 0.0 **** 0.06
18034 H 35.498969187909935 143.3455580257758 147.40423868399571 H 0.0 **** 0.06
18035 H 35.72551543113789 141.96903526272592 148.5097360270793 H 0.0 **** 0.06
18036 C 8.302800575446668 23.48051660360187 51.98456784276107 C 0.0 **** -0.24
18037 H 7.870244750534482 24.22455396883791 51.314962683408794 H 0.0 **** 0.06
18038 H 9.326510513545742 23.763097168754314 52.22906397393399 H 0.0 **** 0.06
18039 H 8.302133625377195 22.50695203047127 51.49339497154176 H 0.0 **** 0.06
18040 H 7.710710183349448 23.426033709594662 52.89832261161877 H 0.0 **** 0.06
18041 C 23.487557489826315 159.33425340033216 133.5490767556386 C 0.0 **** -0.24
18042 H 23.423653736394158 159.75955609321954 134.5505681986937 H 0.0 **** 0.06
18043 H 24.50332089354282 159.45008248367557 133.1699757945828 H 0.0 **** 0.06
18044 H 22.792480258840953 159.85228026717294 132.88858149975854 H 0.0 **** 0.06
18045 H 23.231912959017166 158.27575773249552 133.5866660399601 H 0.0 **** 0.06
18046 C 100.90000034282659 48.631450809024216 44.74644121882744 C 0.0 **** -0.24
18047 H 100.47448118962583 47.627789793272456 44.764251832615855 H 0.0 **** 0.06
18048 H 100.56521718691704 49.150634178767575 43.84784449048769 H 0.0 **** 0.06
18049 H 101.98757073686551 48.56593713072351 44.745117182707986 H 0.0 **** 0.06
18050 H 100.56945778636111 49.18103495436884 45.62821618492691 H 0.0 **** 0.06
18051 C 102.31663272735432 2.989489984287829 100.70630858615968 C 0.0 **** -0.24
18052 H 101.5743424678802 3.783140424552805 100.79253700493666 H 0.0 **** 0.06
18053 H 103.18199732798661 3.2345083987815357 101.3221115331886 H 0.0 **** 0.06
18054 H 102.62576530418681 2.8940670079410538 99.6659967783651 H 0.0 **** 0.06
18055 H 101.88314531627657 2.048942055206716 101.04430326907405 H 0.0 **** 0.06
18056 C 152.2348224835024 34.55605377753807 138.47817864170528 C 0.0 **** -0.24
18057 H 152.18514752781817 33.97681858062285 139.40086504822233 H 0.0 **** 0.06
18058 H 153.10889640313258 34.24697967352506 137.90381011594576 H 0.0 **** 0.06
18059 H 152.31381192046203 35.61600686488043 138.71780810616383 H 0.0 **** 0.06
18060 H 151.33370422771586 34.38198104415284 137.89120443210868 H 0.0 **** 0.06
18061 C 145.71898039806152 140.61521833697452 161.66230345620926 C 0.0 **** -0.24
18062 H 146.40970627502003 140.69366234255796 160.8231470539937 H 0.0 **** 0.06
18063 H 144.82120868033817 140.08405794898366 161.34457905166096 H 0.0 **** 0.06
18064 H 145.44817067312448 141.6149349256836 162.00398175463826 H 0.0 **** 0.06
18065 H 146.19573169983997 140.06956120500638 162.47651760011212 H 0.0 **** 0.06
18066 C 61.988805379326664 112.1704857131648 81.22933026453535 C 0.0 **** -0.24
18067 H 62.93084645230847 111.88866121888319 81.70021004748531 H 0.0 **** 0.06
18068 H 61.439017690298556 111.27017400622509 80.95110989881493 H 0.0 **** 0.06
18069 H 62.19188967404429 112.76236427828383 80.33707934328322 H 0.0 **** 0.06
18070 H 61.39426060514002 112.75813453959202 81.92816967945873 H 0.0 **** 0.06
18071 C 4.545166858026732 37.472031803584954 168.44112000246182 C 0.0 **** -0.24
18072 H 4.716654553479323 36.4398362363615 168.13786032823634 H 0.0 **** 0.06
18073 H 5.3186098066931535 37.777082463920735 169.14501860797088 H 0.0 **** 0.06
18074 H 3.5677682041913457 37.552357572119774 168.9164165575196 H 0.0 **** 0.06
18075 H 4.576175173816807 38.11784906690964 167.56381861724853 H 0.0 **** 0.06
18076 C 24.019045025107772 14.30761737677551 160.96134565652224 C 0.0 **** -0.24
18077 H 23.152882647931676 13.646360626578456 160.95064902121706 H 0.0 **** 0.06
18078 H 23.73471301155783 15.271912576250827 161.3829773322675 H 0.0 **** 0.06
18079 H 24.38134756459914 14.44795965616288 159.94270238568635 H 0.0 **** 0.06
18080 H 24.807322086553484 13.863327498322974 161.56946158020517 H 0.0 **** 0.06
18081 C 103.64423712754183 20.12422701488353 59.325879185155614 C 0.0 **** -0.24
18082 H 104.63919181606445 20.567029512251537 59.28400685986762 H 0.0 **** 0.06
18083 H 103.03577970001197 20.5228164533695 58.51414634691109 H 0.0 **** 0.06
18084 H 103.18008573751013 20.365714241682895 60.28213312289701 H 0.0 **** 0.06
18085 H 103.7242600432802 19.04197054573612 59.22326604745737 H 0.0 **** 0.06
18086 C 17.6561849094509 83.16443570768041 13.363357807683883 C 0.0 **** -0.24
18087 H 16.88096600408312 83.57757414769264 14.008717756962255 H 0.0 **** 0.06
18088 H 17.194049154650372 82.70007186468808 12.492310767880213 H 0.0 **** 0.06
18089 H 18.227575082010844 82.41691087652578 13.914493098188984 H 0.0 **** 0.06
18090 H 18.322404378830925 83.96382399339996 13.039499563133063 H 0.0 **** 0.06
18091 C 59.34308536191352 78.09244617626712 32.10012073921109 C 0.0 **** -0.24
18092 H 60.379399779731926 78.42945151939045 32.128103175713875 H 0.0 **** 0.06
18093 H 58.85686773408659 78.48952468621508 31.207979879713378 H 0.0 **** 0.06
18094 H 58.82069774241613 78.44991659588612 32.98793900960959 H 0.0 **** 0.06
18095 H 59.315926630260066 77.00342813199285 32.07495596194465 H 0.0 **** 0.06
18096 C 111.1770654170065 158.2430916754075 30.127168640007028 C 0.0 **** -0.24
18097 H 112.17577614165486 157.8127252169074 30.057765709171548 H 0.0 **** 0.06
18098 H 110.83948348492913 158.2132000500775 31.16363385561982 H 0.0 **** 0.06
18099 H 110.49062973506659 157.67140948600854 29.503927380475176 H 0.0 **** 0.06
18100 H 111.20393533680038 159.27812256288823 29.783274302965538 H 0.0 **** 0.06
18101 C 165.87498387057695 2.344638915364385 66.82271137526673 C 0.0 **** -0.24
18102 H 164.91310244098673 2.6687996573378427 66.42599094211583 H 0.0 **** 0.06
18103 H 166.10320847518614 1.3451819464655728 66.4526985689778 H 0.0 **** 0.06
18104 H 165.83119254203788 2.3281493038616645 67.912450629625 H 0.0 **** 0.06
18105 H 166.65344925076255 3.037471770664297 66.50139921549007 H 0.0 **** 0.06
18106 C 137.60034087045517 75.70492534152905 100.11140228427266 C 0.0 **** -0.24
18107 H 138.58214888889552 75.82339018005142 100.56966670440355 H 0.0 **** 0.06
18108 H 137.0750518185554 74.87692858530534 100.588701983334 H 0.0 **** 0.06
18109 H 137.71831812943452 75.49680241019482 99.04857522334663 H 0.0 **** 0.06
18110 H 137.0263121085121 76.62216216102297 100.24081158775743 H 0.0 **** 0.06
18111 C 155.25756468125581 37.61389014330608 52.731209979562436 C 0.0 **** -0.24
18112 H 155.00832185987497 36.56539609751057 52.89460042755779 H 0.0 **** 0.06
18113 H 156.1139959608376 37.883432183198366 53.349480749555426 H 0.0 **** 0.06
18114 H 154.40444612247293 38.236293982148084 53.00132360872158 H 0.0 **** 0.06
18115 H 155.50280859745075 37.76933718309992 51.68058263122744 H 0.0 **** 0.06
18116 C 165.77566512844737 11.272296699831855 60.14677796448734 C 0.0 **** -0.24
18117 H 165.27633833275226 10.589900105198836 59.460509238819014 H 0.0 **** 0.06
18118 H 166.23168600376573 10.702352801486882 60.956946544899495 H 0.0 **** 0.06
18119 H 165.04683040591047 11.970727621778451 60.55957381709101 H 0.0 **** 0.06
18120 H 166.54710120332058 11.826447136186573 59.61241586708225 H 0.0 **** 0.06
18121 C 38.907545437523765 0.8112505967142596 84.02351455377094 C 0.0 **** -0.24
18122 H 37.81758923994808 0.7960224817183388 84.01322943860636 H 0.0 **** 0.06
18123 H 39.27810066799971 1.0190863644425292 83.01994428344395 H 0.0 **** 0.06
18124 H 39.28052816994699 -0.15716719947590718 84.35704272470193 H 0.0 **** 0.06
18125 H 39.253061036268306 1.58797514550416 84.70655273912611 H 0.0 **** 0.06
18126 C 131.23540661795397 89.34603632409863 2.3925895798251418 C 0.0 **** -0.24
18127 H 131.43846602116582 90.39255889114854 2.619742785236724 H 0.0 **** 0.06
18128 H 131.03866043241536 88.80489147924371 3.317588149722752 H 0.0 **** 0.06
18129 H 132.10007723114757 88.90894527556699 1.8921304300250483 H 0.0 **** 0.06
18130 H 130.36584586196 89.27935779255785 1.738801963097501 H 0.0 **** 0.06
18131 C 133.63441487270944 75.28219076502604 67.90715040215012 C 0.0 **** -0.24
18132 H 132.87293332582573 75.60525180062885 68.61707758807079 H 0.0 **** 0.06
18133 H 134.44423731393744 76.01148756887144 67.88646294387863 H 0.0 **** 0.06
18134 H 133.19293279314724 75.20006522042321 66.91394440460734 H 0.0 **** 0.06
18135 H 134.02622508257758 74.31142827292796 68.21283351075235 H 0.0 **** 0.06
18136 C 23.057547783484267 84.11401179318524 70.05884305861076 C 0.0 **** -0.24
18137 H 22.341030016794434 83.50309341198809 70.60676291694213 H 0.0 **** 0.06
18138 H 22.5306292017317 84.91103485604981 69.53381997087615 H 0.0 **** 0.06
18139 H 23.588896371720125 83.49270829215136 69.33749651303299 H 0.0 **** 0.06
18140 H 23.772523847939055 84.5494950264043 70.75805247740118 H 0.0 **** 0.06
18141 C 155.03613072996941 53.7960173456417 83.25180923588158 C 0.0 **** -0.24
18142 H 155.92935490516675 54.37313419873452 83.0108052510576 H 0.0 **** 0.06
18143 H 155.3238511799741 52.880135230488705 83.76816965551563 H 0.0 **** 0.06
18144 H 154.50798609694283 53.544519788818704 82.33224770908652 H 0.0 **** 0.06
18145 H 154.38480112174008 54.38759875545922 83.89496579143076 H 0.0 **** 0.06
18146 C 69.0114401221051 63.642106535789864 28.366282063378833 C 0.0 **** -0.24
18147 H 69.75955442944763 63.263358148243455 27.669485218936302 H 0.0 **** 0.06
18148 H 68.16629839546978 64.04533586647801 27.808152364129114 H 0.0 **** 0.06
18149 H 69.45253197274809 64.42880747902761 28.978103754224037 H 0.0 **** 0.06
18150 H 68.66954266650623 62.83022458128694 29.008484536977676 H 0.0 **** 0.06
18151 C 109.63501567122916 100.96562234980675 68.91802453036479 C 0.0 **** -0.24
18152 H 109.94228250968501 100.00207874357062 69.32450945342586 H 0.0 **** 0.06
18153 H 108.73575578495019 100.8352422948766 68.31476677061778 H 0.0 **** 0.06
18154 H 110.43443685935335 101.36894944198019 68.29750847982544 H 0.0 **** 0.06
18155 H 109.42696345326522 101.65560408063314 69.73680760127851 H 0.0 **** 0.06
18156 C 22.7998389034492 35.57871452717218 39.382691834645215 C 0.0 **** -0.24
18157 H 22.29227994655659 34.631964799544605 39.56774060144875 H 0.0 **** 0.06
18158 H 23.711556916041445 35.396197572193614 38.814099709898 H 0.0 **** 0.06
18159 H 23.0522397207759 36.047570739438015 40.33421791830355 H 0.0 **** 0.06
18160 H 22.1427954954236 36.23828569949514 38.814957706345965 H 0.0 **** 0.06
18161 C 140.04984853186278 12.280258717023663 127.15961635008748 C 0.0 **** -0.24
18162 H 139.76802781150633 13.319238094930178 126.98453591305946 H 0.0 **** 0.06
18163 H 139.2526601193014 11.775597085270824 127.70700607006304 H 0.0 **** 0.06
18164 H 140.96909864712146 12.24702685050768 127.74314870795524 H 0.0 **** 0.06
18165 H 140.20769748592284 11.781234533299838 126.20345644764774 H 0.0 **** 0.06
18166 C 32.29062940611516 10.478744185515836 80.76471867046222 C 0.0 **** -0.24
18167 H 31.771373146049825 11.055241898278666 79.99886651772157 H 0.0 **** 0.06
18168 H 32.931171662613394 9.736325818525188 80.28820761781412 H 0.0 **** 0.06
18169 H 31.56011824366908 9.976705467034009 81.39824350984712 H 0.0 **** 0.06
18170 H 32.899456679970854 11.148573197290148 81.37239674716632 H 0.0 **** 0.06
18171 C 12.249141872395796 37.834920452461304 165.60967153018686 C 0.0 **** -0.24
18172 H 13.20727761859169 37.54687001882421 166.04153031232582 H 0.0 **** 0.06
18173 H 12.414535236911036 38.3071526897897 164.64121918837048 H 0.0 **** 0.06
18174 H 11.747185738620999 38.53780702799155 166.27597231720466 H 0.0 **** 0.06
18175 H 11.627270595101692 36.94950597101415 165.48244943673362 H 0.0 **** 0.06
18176 C 36.508540338460264 149.04685651854763 36.53371072544115 C 0.0 **** -0.24
18177 H 35.83516696060104 149.6471210663632 35.922739431652985 H 0.0 **** 0.06
18178 H 36.44784062900996 149.37432924398064 37.571978690521746 H 0.0 **** 0.06
18179 H 37.53060224096332 149.16772043738032 36.17392803932579 H 0.0 **** 0.06
18180 H 36.22128135244684 147.99707483428818 36.46592499875361 H 0.0 **** 0.06
18181 C 167.1645616047071 73.08887798317355 162.94584772007806 C 0.0 **** -0.24
18182 H 167.79650090728063 72.99531651224943 163.8287169849552 H 0.0 **** 0.06
18183 H 167.7321318000237 72.80538219806475 162.05998691015034 H 0.0 **** 0.06
18184 H 166.82898762419654 74.12200025559554 162.84813539812595 H 0.0 **** 0.06
18185 H 166.2987614192861 72.43377028775494 163.0486979330555 H 0.0 **** 0.06
18186 C 121.89101572571619 166.93165320296333 144.83425596724894 C 0.0 **** -0.24
18187 H 122.53015737620791 166.15956204599735 144.40677455195444 H 0.0 **** 0.06
18188 H 121.70620143810228 166.70902866358693 145.8855367104915 H 0.0 **** 0.06
18189 H 120.94361962627954 166.9575548726355 144.29543787925988 H 0.0 **** 0.06
18190 H 122.38433470414355 167.8995761644877 144.74820541078998 H 0.0 **** 0.06
18191 C 67.77472914204691 8.405898908298028 36.23861179242307 C 0.0 **** -0.24
18192 H 68.36975289605994 9.193942495417218 36.699732395612855 H 0.0 **** 0.06
18193 H 66.91526577775795 8.182182619708676 36.869813745731435 H 0.0 **** 0.06
18194 H 68.38495231505476 7.510077258543284 36.12350994020605 H 0.0 **** 0.06
18195 H 67.42979731103745 8.738080823281763 35.258783017474784 H 0.0 **** 0.06
18196 C 70.04508628827755 8.518064221167094 160.770550748779 C 0.0 **** -0.24
18197 H 70.98988086560973 8.210771033356423 161.22003191215168 H 0.0 **** 0.06
18198 H 69.2262351320793 8.27781260571632 161.44875361881824 H 0.0 **** 0.06
18199 H 69.90355839583926 7.990547121432542 159.82730171063852 H 0.0 **** 0.06
18200 H 70.06266781837768 9.59275528330005 160.58705083258442 H 0.0 **** 0.06
18201 C 18.78339357716468 29.360903969708488 57.78970319015275 C 0.0 **** -0.24
18202 H 19.151197452714825 29.207717916405272 58.80479016002438 H 0.0 **** 0.06
18203 H 18.655272524477354 30.42771935454175 57.60814301277122 H 0.0 **** 0.06
18204 H 17.826335335705167 28.853673689046047 57.67027901685056 H 0.0 **** 0.06
18205 H 19.50185302909925 28.95400392196865 57.07835268383373 H 0.0 **** 0.06
18206 C 119.88474982371116 15.15879125516846 131.89224700821487 C 0.0 **** -0.24
18207 H 119.85859165799735 15.492171492738386 130.85420096497757 H 0.0 **** 0.06
18208 H 120.47519298342348 14.244732182286768 131.9658072661813 H 0.0 **** 0.06
18209 H 118.86871226815896 14.963890752533906 132.23578546509364 H 0.0 **** 0.06
18210 H 120.33517959431407 15.934294546253795 132.51139306465765 H 0.0 **** 0.06
18211 C 63.46605980554462 105.85980301286935 43.87459976506787 C 0.0 **** -0.24
18212 H 62.580948432061106 105.5752779731769 44.4431774034766 H 0.0 **** 0.06
18213 H 63.16284398284081 106.3398208009223 42.943944467188146 H 0.0 **** 0.06
18214 H 64.05469131020237 104.96948081338829 43.65060299659649 H 0.0 **** 0.06
18215 H 64.06775505744994 106.55384107930365 44.462511498656085 H 0.0 **** 0.06
18216 C 19.966589911149285 36.174896616814635 161.94220196436697 C 0.0 **** -0.24
18217 H 19.720324379676804 36.543161851376254 162.93841891218844 H 0.0 **** 0.06
18218 H 20.22167191567093 37.015766184853334 161.29741151824604 H 0.0 **** 0.06
18219 H 19.107343057489103 35.6475071310968 161.5287852991749 H 0.0 **** 0.06
18220 H 20.815161497152708 35.4933998227919 162.00653378760825 H 0.0 **** 0.06
18221 C 86.4358237302855 128.60588732446945 112.78017240060043 C 0.0 **** -0.24
18222 H 87.24094889313527 128.6423591003621 112.04575052599233 H 0.0 **** 0.06
18223 H 85.7835515794843 129.46878020864318 112.6457994246789 H 0.0 **** 0.06
18224 H 86.85991319054887 128.62318756337208 113.78441143173819 H 0.0 **** 0.06
18225 H 85.86086024335883 127.69006666242481 112.64355730221084 H 0.0 **** 0.06
18226 C 152.9728025005361 157.7992621012404 44.18635521629261 C 0.0 **** -0.24
18227 H 153.44248426736607 157.22047089782853 43.39082584790606 H 0.0 **** 0.06
18228 H 152.1247806215103 158.35107465497413 43.78233795332332 H 0.0 **** 0.06
18229 H 153.6978910113329 158.4990768606013 44.60107936799665 H 0.0 **** 0.06
18230 H 152.62828325442436 157.12545294044173 44.97088749205528 H 0.0 **** 0.06
18231 C 49.61596566733334 167.47733538374237 126.15765735696544 C 0.0 **** -0.24
18232 H 49.12414342745616 166.832157965392 126.88567670403205 H 0.0 **** 0.06
18233 H 49.05065839337462 168.40341044219653 126.05196504750646 H 0.0 **** 0.06
18234 H 49.662986579611456 166.96803522895064 125.19421580759638 H 0.0 **** 0.06
18235 H 50.62650772011747 167.704069032464 126.49734808992358 H 0.0 **** 0.06
18236 C 79.3478089922243 103.16567170676768 46.70363706088027 C 0.0 **** -0.24
18237 H 80.03642774405645 103.9469529325803 47.02744423096216 H 0.0 **** 0.06
18238 H 79.64458616872018 102.80542075671752 45.71857830720582 H 0.0 **** 0.06
18239 H 78.3370271842444 103.56924862296654 46.654555877479496 H 0.0 **** 0.06
18240 H 79.37565216544373 102.34067548268541 47.41564631638205 H 0.0 **** 0.06
18241 C 46.643178125501436 72.04963536521859 128.8932282026522 C 0.0 **** -0.24
18242 H 47.592868798091004 72.52896903702623 128.6572069699576 H 0.0 **** 0.06
18243 H 46.821610907983 71.01627137543177 129.18940006503186 H 0.0 **** 0.06
18244 H 45.9982510585336 72.06931525739952 128.01442618890684 H 0.0 **** 0.06
18245 H 46.15992591749813 72.5844781682003 129.71101098048445 H 0.0 **** 0.06
18246 C 24.738476215193316 126.7446174949379 96.2125734867854 C 0.0 **** -0.24
18247 H 25.52097363054247 126.08577712767357 96.58923295426209 H 0.0 **** 0.06
18248 H 24.18579414770744 127.16889850212974 97.05139132859591 H 0.0 **** 0.06
18249 H 24.057976318098838 126.17466542408337 95.5798028188537 H 0.0 **** 0.06
18250 H 25.18895305561759 127.5475708402439 95.63059438240052 H 0.0 **** 0.06
18251 C 33.404281417823086 57.219774166924026 42.76619324274219 C 0.0 **** -0.24
18252 H 32.53280647595619 57.873974417374995 42.78577985605642 H 0.0 **** 0.06
18253 H 33.657620186723705 56.984392983511185 41.731904411611595 H 0.0 **** 0.06
18254 H 33.17913951591564 56.29913711345999 43.30505198077407 H 0.0 **** 0.06
18255 H 34.24686307894598 57.722760856447195 43.24242298257087 H 0.0 **** 0.06
18256 C 79.89041203364829 149.15157786199325 127.94334251375568 C 0.0 **** -0.24
18257 H 79.94596233051665 148.60671022037178 128.88570528900965 H 0.0 **** 0.06
18258 H 80.34332710446986 150.1355063981221 128.06685676647663 H 0.0 **** 0.06
18259 H 78.84641405574449 149.26521318734981 127.65060127603141 H 0.0 **** 0.06
18260 H 80.42583409807425 148.59792731999482 127.17304878266708 H 0.0 **** 0.06
18261 C 96.11200465021281 41.69029910301569 160.54475856943634 C 0.0 **** -0.24
18262 H 97.18323852810238 41.60496719210977 160.36459584868422 H 0.0 **** 0.06
18263 H 95.81389285648845 42.73641887121812 160.47991294048785 H 0.0 **** 0.06
18264 H 95.87824932603849 41.30599658364338 161.5379147623035 H 0.0 **** 0.06
18265 H 95.57093684068377 41.11177706472873 159.79563169330004 H 0.0 **** 0.06
18266 C 165.03606710359426 171.68833327347525 53.13143934964431 C 0.0 **** -0.24
18267 H 164.49291723696325 172.5878863085615 52.8413260062331 H 0.0 **** 0.06
18268 H 165.9254824556031 171.96872699704164 53.69585398479474 H 0.0 **** 0.06
18269 H 165.33054083287763 171.13777896603338 52.23821913593521 H 0.0 **** 0.06
18270 H 164.39509159705204 171.06080587625758 53.75104080474733 H 0.0 **** 0.06
18271 C 93.57050816909532 92.25833693587899 119.48345802094514 C 0.0 **** -0.24
18272 H 94.56917553366716 92.62643299183449 119.72082693953078 H 0.0 **** 0.06
18273 H 93.63834938369266 91.23064694917254 119.12585340606452 H 0.0 **** 0.06
18274 H 93.12824070603503 92.8850664062183 118.70853939997946 H 0.0 **** 0.06
18275 H 92.94957660237694 92.29244774122364 120.37790957917571 H 0.0 **** 0.06
18276 C 28.653037617881182 169.31736191427825 83.8039938448546 C 0.0 **** -0.24
18277 H 29.208274145139228 168.43454148590246 83.48873261089363 H 0.0 **** 0.06
18278 H 27.946232171586644 169.60042937658204 83.024326580338 H 0.0 **** 0.06
18279 H 29.347350151859587 170.13891503457205 83.98158262100631 H 0.0 **** 0.06
18280 H 28.110819740098236 169.09621709235597 84.72363450342665 H 0.0 **** 0.06
18281 C 166.3765650114085 77.13941307387853 110.57051817800078 C 0.0 **** -0.24
18282 H 165.72337250883226 77.84378400760653 111.08526114077608 H 0.0 **** 0.06
18283 H 166.81734203374236 77.62341874418809 109.69902043769414 H 0.0 **** 0.06
18284 H 165.79703109431156 76.27300507369432 110.25083111464207 H 0.0 **** 0.06
18285 H 167.16777078529196 76.81704286192996 111.24749458696576 H 0.0 **** 0.06
18286 C 62.1465143625709 7.667058751427639 40.24268491006012 C 0.0 **** -0.24
18287 H 62.14554616256845 6.7345759814205906 40.80762574542945 H 0.0 **** 0.06
18288 H 62.08482227019904 7.444647537738156 39.17723639765859 H 0.0 **** 0.06
18289 H 63.065653270249825 8.214996049620645 40.447141594449135 H 0.0 **** 0.06
18290 H 61.288917379013554 8.271852007643396 40.538473236071525 H 0.0 **** 0.06
18291 C 160.22892901220118 112.16715842861464 146.6620334657676 C 0.0 **** -0.24
18292 H 160.25048092035925 111.0782096593293 146.62939519336743 H 0.0 **** 0.06
18293 H 161.1913736870362 112.55866039420562 146.33039709194236 H 0.0 **** 0.06
18294 H 160.03414824443007 112.49653452972285 147.68229176672426 H 0.0 **** 0.06
18295 H 159.4409790285489 112.53447533827111 146.00436766766694 H 0.0 **** 0.06
18296 C 128.86831468700893 95.8754786922934 30.211972844696618 C 0.0 **** -0.24
18297 H 129.22729621375345 96.74706892748247 29.66358890730453 H 0.0 **** 0.06
18298 H 128.58295167581116 95.0954365371224 29.50547486230596 H 0.0 **** 0.06
18299 H 128.0037880466259 96.15610517881183 30.814273991218613 H 0.0 **** 0.06
18300 H 129.65978652288698 95.50479364571396 30.863343794876585 H 0.0 **** 0.06
18301 C 134.7689205416801 78.79382189894808 145.73833498317063 C 0.0 **** -0.24
18302 H 135.46522222919668 77.9732242378979 145.91148412785296 H 0.0 **** 0.06
18303 H 133.98984289698072 78.46969636945501 145.04834813572887 H 0.0 **** 0.06
18304 H 135.3044821521488 79.64122093627086 145.3104041288223 H 0.0 **** 0.06
18305 H 134.3152872390304 79.09089107095019 146.68420650491865 H 0.0 **** 0.06
18306 C 166.1872398355735 49.44018536563753 158.23646546451624 C 0.0 **** -0.24
18307 H 166.7718144949556 49.83179156759199 159.06899909014788 H 0.0 **** 0.06
18308 H 166.8594860788577 49.047501729657895 157.47403401428534 H 0.0 **** 0.06
18309 H 165.58057332673422 50.23955155122803 157.81104728101224 H 0.0 **** 0.06
18310 H 165.53713692979352 48.64154678181754 158.5942053401833 H 0.0 **** 0.06
18311 C 28.14589674814185 137.77016595308385 77.06317760787908 C 0.0 **** -0.24
18312 H 28.80123761516255 136.90217437906873 76.9912112317854 H 0.0 **** 0.06
18313 H 27.63261475231306 137.75914926074097 78.02513781176498 H 0.0 **** 0.06
18314 H 27.410141660151126 137.73741003380766 76.25882338159192 H 0.0 **** 0.06
18315 H 28.737872872429364 138.6809327908834 76.97732192588624 H 0.0 **** 0.06
18316 C 50.99483457115285 18.19862754255351 42.53507835540893 C 0.0 **** -0.24
18317 H 50.12654515465093 17.53934887356371 42.548618264555245 H 0.0 **** 0.06
18318 H 51.187857501864926 18.566852648107982 43.54273981066892 H 0.0 **** 0.06
18319 H 50.80050268989942 19.040773506415206 41.8708573965238 H 0.0 **** 0.06
18320 H 51.86349339115327 17.646300592365208 42.17620234818102 H 0.0 **** 0.06
18321 C 25.834724483976743 55.40832441701008 168.13792533309862 C 0.0 **** -0.24
18322 H 24.989073109557275 55.617999359550424 168.79331099886514 H 0.0 **** 0.06
18323 H 25.694461451566653 54.43718598421867 167.66343022640882 H 0.0 **** 0.06
18324 H 26.75351248816866 55.39734886755434 168.72451064937832 H 0.0 **** 0.06
18325 H 25.902161446006303 56.18146325296706 167.3725504046078 H 0.0 **** 0.06
18326 C 6.8282420931474235 114.58161201241833 36.05378201120732 C 0.0 **** -0.24
18327 H 6.1787272607598425 113.93021076196649 36.637115563192424 H 0.0 **** 0.06
18328 H 7.744181320321786 114.77691763374821 36.61363047188348 H 0.0 **** 0.06
18329 H 6.315924852171577 115.52307413402033 35.85498988412587 H 0.0 **** 0.06
18330 H 7.076260695075348 114.09659325116385 35.109992446535045 H 0.0 **** 0.06
18331 C 25.178516998878308 64.86400348123226 163.74210975418245 C 0.0 **** -0.24
18332 H 24.80040797036756 64.94649746293459 162.72360326754705 H 0.0 **** 0.06
18333 H 26.222942624064217 65.17631093427062 163.7679434358218 H 0.0 **** 0.06
18334 H 25.100225800164765 63.82919190827859 164.07735550981016 H 0.0 **** 0.06
18335 H 24.591180147260104 65.50438653837222 164.40071446703027 H 0.0 **** 0.06
18336 C 64.43856459650198 147.3668762582352 23.913084525374444 C 0.0 **** -0.24
18337 H 63.66459090732731 146.6864235326736 23.55702831913483 H 0.0 **** 0.06
18338 H 64.1360706404062 147.7914503833075 24.87013227381413 H 0.0 **** 0.06
18339 H 64.57731521782651 148.16825895215635 23.187119485691902 H 0.0 **** 0.06
18340 H 65.37335830285895 146.82018950507006 24.035401708667763 H 0.0 **** 0.06
18341 C 125.38871890635113 33.613563529945054 62.1777118440382 C 0.0 **** -0.24
18342 H 126.00642141701817 33.950385619644976 61.344649602520334 H 0.0 **** 0.06
18343 H 124.80412517256585 32.74735976758359 61.86850741114385 H 0.0 **** 0.06
18344 H 124.71727355747569 34.41691154351753 62.48027140464187 H 0.0 **** 0.06
18345 H 126.02870472126801 33.34064370008599 63.01633040281462 H 0.0 **** 0.06
18346 C 56.23174226437216 143.311315782222 120.81464557170136 C 0.0 **** -0.24
18347 H 56.70219504679659 143.90375548078725 121.59998154752677 H 0.0 **** 0.06
18348 H 55.806670685509204 142.40589570971224 121.24906456365184 H 0.0 **** 0.06
18349 H 56.97858902829729 143.04085395234708 120.06857018703136 H 0.0 **** 0.06
18350 H 55.44155645644305 143.89506123637506 120.34408656780809 H 0.0 **** 0.06
18351 C 58.46470934576871 29.26133987068951 37.06009406943434 C 0.0 **** -0.24
18352 H 57.720466311034755 29.593116280968587 37.78382046393307 H 0.0 **** 0.06
18353 H 58.04093580736816 29.305938192852693 36.05676153885054 H 0.0 **** 0.06
18354 H 58.75907248205847 28.23655623054009 37.28568442665693 H 0.0 **** 0.06
18355 H 59.33815158435931 29.911497929886195 37.115486802916024 H 0.0 **** 0.06
18356 C 106.30338174597483 140.49320899159773 117.83089983219719 C 0.0 **** -0.24
18357 H 107.17878305451197 140.32948004386134 117.20119465570846 H 0.0 **** 0.06
18358 H 106.1200413449796 141.56344555821596 117.9262999075477 H 0.0 **** 0.06
18359 H 106.48132454855855 140.0651603647182 118.81805126541283 H 0.0 **** 0.06
18360 H 105.43558589664212 140.01452265614543 117.37778182874393 H 0.0 **** 0.06
18361 C 141.44266204159828 95.08419068684458 70.4762235914502 C 0.0 **** -0.24
18362 H 141.54752310381997 94.08013889769481 70.06484863580403 H 0.0 **** 0.06
18363 H 141.45759437661303 95.81303622859144 69.66542126828944 H 0.0 **** 0.06
18364 H 142.26855464731034 95.2846510674776 71.15967897457728 H 0.0 **** 0.06
18365 H 140.49861610084554 95.15840725781447 71.01511905483221 H 0.0 **** 0.06
18366 C 119.80627820456903 154.19690766796435 153.8891916236508 C 0.0 **** -0.24
18367 H 119.82863113262997 153.172879134118 153.51475854832495 H 0.0 **** 0.06
18368 H 118.83164845119532 154.3985086466238 154.33408833613902 H 0.0 **** 0.06
18369 H 119.98001096417389 154.8888578060606 153.06471534295395 H 0.0 **** 0.06
18370 H 120.5836897918065 154.32510785061862 154.6419665599137 H 0.0 **** 0.06
18371 C 170.0057521520178 156.2577478834882 141.09832765063442 C 0.0 **** -0.24
18372 H 169.74500522509476 156.12159582840837 142.14801181756184 H 0.0 **** 0.06
18373 H 169.10647269715975 156.17843073970576 140.48753764041697 H 0.0 **** 0.06
18374 H 170.71848243930455 155.4903143326017 140.79827692838688 H 0.0 **** 0.06
18375 H 170.45299610238152 157.24270233390823 140.9603718788357 H 0.0 **** 0.06
18376 C 166.06562480723085 109.13484204315023 0.02701793819994691 C 0.0 **** -0.24
18377 H 164.99714632081373 109.2736022113026 0.19009309824946286 H 0.0 **** 0.06
18378 H 166.33403099433963 109.50846112420007 -0.9608717676073866 H 0.0 **** 0.06
18379 H 166.30843758918627 108.07401072344547 0.09385406782772066 H 0.0 **** 0.06
18380 H 166.62286977209487 109.68350374139905 0.7867156356415137 H 0.0 **** 0.06
18381 C 49.39087841388974 166.51310507299303 21.9221417313816 C 0.0 **** -0.24
18382 H 49.84228213883671 166.69905952513255 20.946962343865266 H 0.0 **** 0.06
18383 H 49.35610467395499 167.4437420551168 22.488155659961336 H 0.0 **** 0.06
18384 H 49.9878300948549 165.77942902534318 22.46366765556519 H 0.0 **** 0.06
18385 H 48.37925168361805 166.13083898186363 21.78718185292942 H 0.0 **** 0.06
18386 C 72.06268467770067 122.08780958448136 97.28139274863122 C 0.0 **** -0.24
18387 H 72.60513785023703 122.26514666205173 98.21023843628754 H 0.0 **** 0.06
18388 H 71.06636894046031 122.52335835638169 97.35360347463507 H 0.0 **** 0.06
18389 H 71.97956893984441 121.01429120814029 97.10906375750031 H 0.0 **** 0.06
18390 H 72.60261281308591 122.54694254980691 96.4536900878602 H 0.0 **** 0.06
18391 C 56.9318667657958 66.2428612201276 161.03820296430501 C 0.0 **** -0.24
18392 H 57.862125061655206 66.79474074675635 160.8996832723916 H 0.0 **** 0.06
18393 H 56.09752962313945 66.94380255258491 161.07876148030172 H 0.0 **** 0.06
18394 H 56.97896156817603 65.67823630156033 161.9683846209706 H 0.0 **** 0.06
18395 H 56.789732503104176 65.55684888753817 160.2030747584829 H 0.0 **** 0.06
18396 C 70.21957619188119 93.1850140645596 27.817843739217196 C 0.0 **** -0.24
18397 H 70.65439052459496 93.7170949861488 26.97147940558638 H 0.0 **** 0.06
18398 H 69.3190373692276 93.70365319216202 28.148744792300718 H 0.0 **** 0.06
18399 H 70.94025598501267 93.15016138951535 28.634281174434776 H 0.0 **** 0.06
18400 H 69.96401708446514 92.16984211119947 27.515402650948445 H 0.0 **** 0.06
18401 C 7.511152576898525 63.85286717401674 58.103948954966015 C 0.0 **** -0.24
18402 H 8.58569722609812 63.84530714179539 57.91837725239979 H 0.0 **** 0.06
18403 H 7.047410025352434 63.01334139911319 57.58626131030286 H 0.0 **** 0.06
18404 H 7.085619228981727 64.78627746801048 57.737351437951205 H 0.0 **** 0.06
18405 H 7.3276518943627025 63.76537809339642 59.17503782057358 H 0.0 **** 0.06
18406 C 158.94516444916644 98.05535087826902 129.40419572502168 C 0.0 **** -0.24
18407 H 159.1144325113455 98.94998569674883 128.80577862764045 H 0.0 **** 0.06
18408 H 159.5077321499615 98.12956667030983 130.33491415007603 H 0.0 **** 0.06
18409 H 159.2762889331973 97.1785678089733 128.8474990247475 H 0.0 **** 0.06
18410 H 157.8826180824734 97.96349292156572 129.62725512109625 H 0.0 **** 0.06
18411 C 0.8097411334770186 113.95922489668848 31.6950405086761 C 0.0 **** -0.24
18412 H 0.7158448110143354 113.63133309380984 32.72998283200286 H 0.0 **** 0.06
18413 H 0.00955669380806512 114.66275472279145 31.463036503358268 H 0.0 **** 0.06
18414 H 0.7393047343425678 113.09717734797331 31.032965833326273 H 0.0 **** 0.06
18415 H 1.7747707172774199 114.4471123426296 31.55577477525975 H 0.0 **** 0.06
18416 C 39.51254159051382 143.07964321566385 4.52017658313946 C 0.0 **** -0.24
18417 H 39.51360308922335 142.150750014378 3.950586857315699 H 0.0 **** 0.06
18418 H 38.49165322601357 143.45043466896678 4.608090242886192 H 0.0 **** 0.06
18419 H 40.12631980512123 143.8202667874334 4.0069463924981505 H 0.0 **** 0.06
18420 H 39.92079108027963 142.89657740379144 5.514155179312922 H 0.0 **** 0.06
18421 C 44.431639184441565 39.55961895383018 124.67083103843615 C 0.0 **** -0.24
18422 H 44.390869161153375 38.59823174213636 125.18190988971594 H 0.0 **** 0.06
18423 H 44.98419754632022 40.273056313773054 125.28219719272317 H 0.0 **** 0.06
18424 H 43.4179687371128 39.92790984312012 124.50860505820211 H 0.0 **** 0.06
18425 H 44.932582399321916 39.44026137268668 123.7102229787794 H 0.0 **** 0.06
18426 C 2.1500646831749535 98.6544815852346 43.05727306325424 C 0.0 **** -0.24
18427 H 2.0879825548200586 98.93879411468856 42.00723527506672 H 0.0 **** 0.06
18428 H 2.9154451704998436 99.25328735553202 43.55199679699028 H 0.0 **** 0.06
18429 H 2.4108629822938354 97.59810102275046 43.13229026634876 H 0.0 **** 0.06
18430 H 1.1872913208400249 98.82594154553661 43.53759700622854 H 0.0 **** 0.06
18431 C 71.80321692050273 59.476371086035826 31.504486710992012 C 0.0 **** -0.24
18432 H 71.94452411957838 60.381535739241556 30.911534361502305 H 0.0 **** 0.06
18433 H 70.7373976009261 59.3058359345783 31.657552499982472 H 0.0 **** 0.06
18434 H 72.295524426317 59.594720007546854 32.46983900027442 H 0.0 **** 0.06
18435 H 72.2358027744288 58.6264505810187 30.977438538577303 H 0.0 **** 0.06
18436 C 161.82612828950175 44.19248068607965 10.235802331364447 C 0.0 **** -0.24
18437 H 161.89652302991476 45.033456716391356 10.926218223001761 H 0.0 **** 0.06
18438 H 160.77626450923128 43.95832844561181 10.055969097796982 H 0.0 **** 0.06
18439 H 162.3237878894672 43.3252976896847 10.668009125460564 H 0.0 **** 0.06
18440 H 162.30649490590923 44.45546814943236 9.29290906222306 H 0.0 **** 0.06
18441 C 25.793004903932115 115.95410755370733 58.63366261513015 C 0.0 **** -0.24
18442 H 25.044240385731996 115.1637842715819 58.69172297831541 H 0.0 **** 0.06
18443 H 26.50269524518751 115.84095226642566 59.454630185219884 H 0.0 **** 0.06
18444 H 25.303826914193394 116.92465162285939 58.70626595573222 H 0.0 **** 0.06
18445 H 26.322087155391415 115.88375076088192 57.683605742780784 H 0.0 **** 0.06
18446 C 162.35551148408777 8.57714848443544 154.128305299918 C 0.0 **** -0.24
18447 H 161.44492417749544 8.09714323625343 154.48506273688423 H 0.0 **** 0.06
18448 H 162.51347636603384 9.508054417431481 154.67317265428022 H 0.0 **** 0.06
18449 H 162.26095973540345 8.79050677499464 153.06329430999176 H 0.0 **** 0.06
18450 H 163.20424668936295 7.9121728946101655 154.29146850346962 H 0.0 **** 0.06
18451 C 156.25025835421232 88.73092611961656 22.427551122082846 C 0.0 **** -0.24
18452 H 155.21112381828735 89.05899846554935 22.444701241324474 H 0.0 **** 0.06
18453 H 156.501996869931 88.3755465968254 21.42781099150708 H 0.0 **** 0.06
18454 H 156.38747754518485 87.92275875373282 23.146060405688743 H 0.0 **** 0.06
18455 H 156.89919254447915 89.56578224140391 22.691902884466586 H 0.0 **** 0.06
18456 C 130.89762924920612 154.9682071851696 91.62392825120642 C 0.0 **** -0.24
18457 H 130.14244996323083 154.52712643203768 90.97432362926821 H 0.0 **** 0.06
18458 H 131.0537668928321 154.32328844502177 92.48923979435273 H 0.0 **** 0.06
18459 H 130.56057187006354 155.94933378159905 91.95821271999344 H 0.0 **** 0.06
18460 H 131.83334386178967 155.07327601621856 91.07528367056824 H 0.0 **** 0.06
18461 C 56.37518923469548 73.50337036723131 163.49757675825686 C 0.0 **** -0.24
18462 H 57.21870307594236 73.23560025759592 164.13290873322234 H 0.0 **** 0.06
18463 H 55.93426021492871 74.43546555607278 163.8531261729604 H 0.0 **** 0.06
18464 H 55.62757718553638 72.71086147102038 163.5342518861905 H 0.0 **** 0.06
18465 H 56.7194797743731 73.63120864187745 162.47117693730033 H 0.0 **** 0.06
18466 C 43.44710456761425 6.905260171082688 61.42752581465501 C 0.0 **** -0.24
18467 H 44.38011494647719 7.436450700864171 61.61875204395659 H 0.0 **** 0.06
18468 H 43.19162481479759 6.988931911467418 60.37082749320349 H 0.0 **** 0.06
18469 H 42.65080479744438 7.343689858894095 62.030362704073795 H 0.0 **** 0.06
18470 H 43.56629481795011 5.8550599007989135 61.69222609070408 H 0.0 **** 0.06
18471 C 72.69159156679054 101.56440891844119 168.38002541133093 C 0.0 **** -0.24
18472 H 71.83967534706233 101.61985922438879 169.0585556132403 H 0.0 **** 0.06
18473 H 72.75185719495921 100.56169456432909 167.95578940455994 H 0.0 **** 0.06
18474 H 73.60700000140314 101.78324523615856 168.9288789628055 H 0.0 **** 0.06
18475 H 72.56547892504359 102.2916202318959 167.57860263779938 H 0.0 **** 0.06
18476 C 61.681848839080104 6.432973713857336 25.422604293085726 C 0.0 **** -0.24
18477 H 62.603498825596986 6.227412540992532 24.877963955010415 H 0.0 **** 0.06
18478 H 61.71288761462223 7.446500130296101 25.821723279917023 H 0.0 **** 0.06
18479 H 61.57887975813915 5.7220053828722826 26.24198184203908 H 0.0 **** 0.06
18480 H 60.83193488966178 6.334087921325477 24.74720065879268 H 0.0 **** 0.06
18481 C 55.8971959258555 137.80537200152904 5.87606361744929 C 0.0 **** -0.24
18482 H 56.985971075050145 137.85447257483705 5.873065918889438 H 0.0 **** 0.06
18483 H 55.57936098063416 136.7904402127251 6.113764233468231 H 0.0 **** 0.06
18484 H 55.51796098015549 138.08463858615377 4.892853453188081 H 0.0 **** 0.06
18485 H 55.50500621877859 138.49354301431504 6.626049034119575 H 0.0 **** 0.06
18486 C 93.00235485984422 83.16366533892051 111.91769665707636 C 0.0 **** -0.24
18487 H 92.49304873568934 82.73117311462426 111.05621134280017 H 0.0 **** 0.06
18488 H 93.5242804934395 84.07075477838409 111.61309599400653 H 0.0 **** 0.06
18489 H 93.72006290646735 82.44585143062065 112.31374275675404 H 0.0 **** 0.06
18490 H 92.26895311064393 83.40628434208455 112.68729792036032 H 0.0 **** 0.06
18491 C 80.13109463363904 115.84828775136992 55.93508985676773 C 0.0 **** -0.24
18492 H 79.74499529049395 115.41068148093825 55.01417332967608 H 0.0 **** 0.06
18493 H 81.2031613205786 116.0200781204199 55.83471408505301 H 0.0 **** 0.06
18494 H 79.94779611734957 115.16774449288636 56.766068008590324 H 0.0 **** 0.06
18495 H 79.62847140718891 116.79686830641447 56.12437274646432 H 0.0 **** 0.06
18496 C 94.49076220196417 94.81833371518724 110.79818744029674 C 0.0 **** -0.24
18497 H 95.46406433409794 95.22582448005781 111.07115889468386 H 0.0 **** 0.06
18498 H 93.70597375127369 95.38472456148554 111.29976065181324 H 0.0 **** 0.06
18499 H 94.43666196609132 93.77305798688568 111.10208379621324 H 0.0 **** 0.06
18500 H 94.35759316279137 94.89103385004998 109.71808933127397 H 0.0 **** 0.06
18501 C 70.93411777125732 136.0659252053119 163.24732426720308 C 0.0 **** -0.24
18502 H 70.93199429718821 134.98110469148472 163.1510794085769 H 0.0 **** 0.06
18503 H 71.96142130202786 136.41920547252067 163.343421767511 H 0.0 **** 0.06
18504 H 70.3663420253079 136.35342861695858 164.13256756248515 H 0.0 **** 0.06
18505 H 70.47796262335834 136.51089362085585 162.3629845270389 H 0.0 **** 0.06
18506 C 166.59550361100057 86.00063622523489 69.8787952769103 C 0.0 **** -0.24
18507 H 167.4947047802454 86.34241018889495 70.39223273639988 H 0.0 **** 0.06
18508 H 166.6647255109207 84.92676812313734 69.70110213248319 H 0.0 **** 0.06
18509 H 166.50272259825314 86.5210668102904 68.92518377572884 H 0.0 **** 0.06
18510 H 165.72224555951206 86.21229929187056 70.49514037771075 H 0.0 **** 0.06
18511 C 99.4505891452263 88.22471452557642 48.407166822890645 C 0.0 **** -0.24
18512 H 100.48118502637192 88.3768498624757 48.724319926912415 H 0.0 **** 0.06
18513 H 99.15390613219077 87.19630952029217 48.61546359596548 H 0.0 **** 0.06
18514 H 99.3669430249133 88.4169459945341 47.3378097467147 H 0.0 **** 0.06
18515 H 98.79851056630062 88.90746131374391 48.95129687748147 H 0.0 **** 0.06
18516 C 75.30547665183246 0.015341132187579376 84.03294976988919 C 0.0 **** -0.24
18517 H 74.58563969414598 -0.6734366082391148 84.47354042400187 H 0.0 **** 0.06
18518 H 76.25650975694828 -0.49730295712367933 83.88577885318995 H 0.0 **** 0.06
18519 H 75.44999576328229 0.8645056673845843 84.70124313137588 H 0.0 **** 0.06
18520 H 74.93015916131225 0.369080933840074 83.07286273761031 H 0.0 **** 0.06
18521 C 5.481912021285048 106.23005308660183 154.7915061002097 C 0.0 **** -0.24
18522 H 5.868229834767824 105.40568721299468 154.19161723152845 H 0.0 **** 0.06
18523 H 5.287156595860814 105.88162748037107 155.80533847324514 H 0.0 **** 0.06
18524 H 4.556841235492925 106.59811692791916 154.34828806932222 H 0.0 **** 0.06
18525 H 6.21779838996224 107.03383143477376 154.8182420316315 H 0.0 **** 0.06
18526 C 5.447837582729534 115.22497113837653 154.62809441483466 C 0.0 **** -0.24
18527 H 6.170629857831585 115.37974428508386 155.42818549788964 H 0.0 **** 0.06
18528 H 5.943572541876648 114.76159070027211 153.77594444923724 H 0.0 **** 0.06
18529 H 5.0273745537244 116.18468276932464 154.32761710748613 H 0.0 **** 0.06
18530 H 4.648479036382639 114.57353617852363 154.98268378248613 H 0.0 **** 0.06
18531 C 140.64559904330912 13.835294541751125 153.2005390568582 C 0.0 **** -0.24
18532 H 139.60389235849013 13.527207345882367 153.29155913498272 H 0.0 **** 0.06
18533 H 140.6968676966576 14.920548526380024 153.11522500562847 H 0.0 **** 0.06
18534 H 141.08363118015626 13.378944008135996 152.3134070512095 H 0.0 **** 0.06
18535 H 141.1972095991158 13.513993642547362 154.0842305871772 H 0.0 **** 0.06
18536 C 149.3224385353344 132.21865546209798 85.8226183673267 C 0.0 **** -0.24
18537 H 148.3650450097046 131.81421954558365 85.49171588132992 H 0.0 **** 0.06
18538 H 149.79334245453336 132.75601635266165 84.9989728249679 H 0.0 **** 0.06
18539 H 149.96988754038068 131.40093827482465 86.14145470745245 H 0.0 **** 0.06
18540 H 149.15947176050517 132.90008609890583 86.65703749237576 H 0.0 **** 0.06
18541 C 125.42283335194247 87.29187485478286 132.38985647759574 C 0.0 **** -0.24
18542 H 125.50830512575345 88.35136305880849 132.6302072464598 H 0.0 **** 0.06
18543 H 126.27613677400728 86.75464452183934 132.80514439595248 H 0.0 **** 0.06
18544 H 125.40662120282866 87.16527134424376 131.3063132318796 H 0.0 **** 0.06
18545 H 124.50100595691089 86.89649454762184 132.81566727131587 H 0.0 **** 0.06
18546 C 129.64442768685015 32.611651609598624 136.3883125984015 C 0.0 **** -0.24
18547 H 129.91670062534587 32.11958551816639 135.45408424304728 H 0.0 **** 0.06
18548 H 129.16779047411183 31.88931659092242 137.0520477203793 H 0.0 **** 0.06
18549 H 128.95191873898847 33.426924367768606 136.18129848355733 H 0.0 **** 0.06
18550 H 130.54131443641697 33.00785737381864 136.8646122308631 H 0.0 **** 0.06
18551 C 85.61447928898644 124.0925281830919 57.87749802407913 C 0.0 **** -0.24
18552 H 85.43537915183356 124.94672137953447 58.52916685205355 H 0.0 **** 0.06
18553 H 86.42488448849468 123.4876949468622 58.28518831488505 H 0.0 **** 0.06
18554 H 85.89084414131639 124.44522851588894 56.88362924945879 H 0.0 **** 0.06
18555 H 84.70875350038762 123.49023917847077 57.80973428682802 H 0.0 **** 0.06
18556 C 7.3965446506884405 49.870557782984264 47.788950879744434 C 0.0 **** -0.24
18557 H 8.373757728205305 49.41664130951166 47.62235664502212 H 0.0 **** 0.06
18558 H 7.501516839039709 50.95466641738477 47.819812993505195 H 0.0 **** 0.06
18559 H 6.988040129953077 49.51628186572428 48.73503269333668 H 0.0 **** 0.06
18560 H 6.725035947260551 49.59285962977438 46.97612986676536 H 0.0 **** 0.06
18561 C 123.44746421807457 24.573230755744873 98.76900307933562 C 0.0 **** -0.24
18562 H 124.21674266582653 24.043796382995794 99.33290391713257 H 0.0 **** 0.06
18563 H 122.50663682755095 24.539532815959745 99.31869250512591 H 0.0 **** 0.06
18564 H 123.31893176314543 24.098330432708508 97.79652826392291 H 0.0 **** 0.06
18565 H 123.75087269232733 25.611428222186845 98.6295916802934 H 0.0 **** 0.06
18566 C 69.23118392881321 157.52727744249242 145.47645481335923 C 0.0 **** -0.24
18567 H 69.38916795958947 156.52162774755976 145.86580416290872 H 0.0 **** 0.06
18568 H 68.17493811964006 157.66496853388958 145.24623725248813 H 0.0 **** 0.06
18569 H 69.82150602886425 157.66252386012977 144.5697909122793 H 0.0 **** 0.06
18570 H 69.54032285465445 158.25936674939925 146.22290345402482 H 0.0 **** 0.06
18571 C 38.99104811435262 142.86205538539323 76.82909012215597 C 0.0 **** -0.24
18572 H 39.4451335977227 143.24865248301143 75.91756272317593 H 0.0 **** 0.06
18573 H 38.02503161044956 143.344371394635 76.9855625728336 H 0.0 **** 0.06
18574 H 39.64350313816294 143.07082525767333 77.6775026366962 H 0.0 **** 0.06
18575 H 38.84847832873061 141.78570077384376 76.73595701467633 H 0.0 **** 0.06
18576 C 35.4190711231378 60.6758706461939 8.816266343972416 C 0.0 **** -0.24
18577 H 35.512927761799915 60.02852255932544 7.944600376557162 H 0.0 **** 0.06
18578 H 34.45921645403024 60.49497607284417 9.301238904409729 H 0.0 **** 0.06
18579 H 35.478402572724065 61.71765981182239 8.503010431064524 H 0.0 **** 0.06
18580 H 36.22609993570421 60.460504827245714 9.516963325658821 H 0.0 **** 0.06
18581 C 156.48479023896311 121.50174045028791 143.37625426361885 C 0.0 **** -0.24
18582 H 156.51194902259627 120.41923439105193 143.50068181458266 H 0.0 **** 0.06
18583 H 157.371070787985 121.82739613176557 142.83159900281058 H 0.0 **** 0.06
18584 H 156.46461513051653 121.97910551632094 144.35657144564212 H 0.0 **** 0.06
18585 H 155.59082777069773 121.7807809389486 142.81824198361636 H 0.0 **** 0.06
18586 C 28.24562055352635 117.9533239540676 46.600521050361735 C 0.0 **** -0.24
18587 H 28.707127687858588 117.34055997579628 47.374621590133685 H 0.0 **** 0.06
18588 H 27.575241991828193 118.67866867855787 47.061761556510106 H 0.0 **** 0.06
18589 H 27.678987653636113 117.31518034385346 45.92169404547842 H 0.0 **** 0.06
18590 H 29.020443888928412 118.47828665147529 46.04292252510355 H 0.0 **** 0.06
18591 C 110.66405409828894 21.475210151785916 137.02153159864835 C 0.0 **** -0.24
18592 H 110.88493349204259 21.982910290751533 137.9609021705725 H 0.0 **** 0.06
18593 H 109.67392047496963 21.0236407406681 137.07637352751073 H 0.0 **** 0.06
18594 H 111.40937371146714 20.699336310813237 136.84515230344752 H 0.0 **** 0.06
18595 H 110.69006717313033 22.197043253177924 136.20425715140522 H 0.0 **** 0.06
18596 C 36.06279370360109 48.461534263534034 51.376414073315914 C 0.0 **** -0.24
18597 H 36.51999634234322 47.814515700060966 52.12476151881086 H 0.0 **** 0.06
18598 H 34.9842165000092 48.4871178639995 51.528742188684475 H 0.0 **** 0.06
18599 H 36.28139050922866 48.0756088833778 50.38085783902676 H 0.0 **** 0.06
18600 H 36.46849498306105 49.46850116039883 51.47184108072014 H 0.0 **** 0.06
18601 C 24.96029274575801 165.89499499827986 25.96061085888627 C 0.0 **** -0.24
18602 H 25.864527671939356 165.50193226345533 25.496134741640617 H 0.0 **** 0.06
18603 H 25.103772963057054 165.95524104296805 27.03950892178392 H 0.0 **** 0.06
18604 H 24.122774036269107 165.23399605228838 25.741291585350382 H 0.0 **** 0.06
18605 H 24.75297600766129 166.88958371344845 25.565176597058212 H 0.0 **** 0.06
18606 C 7.344667477450486 109.52984845375869 98.03486333909291 C 0.0 **** -0.24
18607 H 8.28758494107629 109.97738922557593 97.72169711901054 H 0.0 **** 0.06
18608 H 6.77855878590384 109.22283270715775 97.15377279421614 H 0.0 **** 0.06
18609 H 6.7671061104734065 110.25933753485091 98.60191510918543 H 0.0 **** 0.06
18610 H 7.545014677266465 108.659812894461 98.65909588614926 H 0.0 **** 0.06
18611 C 156.40938521691635 24.07214041838529 128.8834429299011 C 0.0 **** -0.24
18612 H 156.83406366943257 24.749738142134532 129.6246579754569 H 0.0 **** 0.06
18613 H 155.40319665114106 24.40322598693058 128.6248658165213 H 0.0 **** 0.06
18614 H 156.36701622260392 23.064226987777516 129.29461507375757 H 0.0 **** 0.06
18615 H 157.03430634713112 24.07417861100066 127.98980394224762 H 0.0 **** 0.06
18616 C 169.79101488192015 167.52278625684013 89.82305647648496 C 0.0 **** -0.24
18617 H 168.93294746703475 167.20145842306312 89.23254235848135 H 0.0 **** 0.06
18618 H 170.30633423731848 168.33061933012326 89.30276243108638 H 0.0 **** 0.06
18619 H 170.47274343655025 166.6840312034816 89.96001739467555 H 0.0 **** 0.06
18620 H 169.4494095240966 167.8763777751475 90.79634678682396 H 0.0 **** 0.06
18621 C 73.74634654693585 167.54433455009746 138.99685625316602 C 0.0 **** -0.24
18622 H 74.79606868283798 167.3208563122397 139.1900093772904 H 0.0 **** 0.06
18623 H 73.36937495834604 166.87632037289154 138.22235533757475 H 0.0 **** 0.06
18624 H 73.64972490839989 168.577748737075 138.66528192130272 H 0.0 **** 0.06
18625 H 73.17050353566566 167.40045833154414 139.91203639605658 H 0.0 **** 0.06
18626 C 108.75367421561961 107.53643190001313 90.61452907145159 C 0.0 **** -0.24
18627 H 108.58016984836547 106.46025942332173 90.61405565046468 H 0.0 **** 0.06
18628 H 109.21491845399368 107.82887751597895 91.55708488391873 H 0.0 **** 0.06
18629 H 107.80278070560121 108.05729613109852 90.49724223259776 H 0.0 **** 0.06
18630 H 109.41486482303276 107.79726976925741 89.7887102377713 H 0.0 **** 0.06
18631 C 160.6331450183136 105.06399386367451 122.18872643901295 C 0.0 **** -0.24
18632 H 161.25687504057382 104.25454036113581 121.80804271003012 H 0.0 **** 0.06
18633 H 159.81052155253076 104.64552410380568 122.76972292300377 H 0.0 **** 0.06
18634 H 160.23432670927423 105.63863324625154 121.3539895558477 H 0.0 **** 0.06
18635 H 161.23300375881334 105.7147741170198 122.82460750242353 H 0.0 **** 0.06
18636 C 134.02878883160236 32.17804545303636 35.288178624667864 C 0.0 **** -0.24
18637 H 133.18834155109394 31.540197238100347 35.015033607793725 H 0.0 **** 0.06
18638 H 133.91812881750272 32.501557953236386 36.32332509632181 H 0.0 **** 0.06
18639 H 134.04961714218493 33.05028614357161 34.63401612652018 H 0.0 **** 0.06
18640 H 134.95889301384713 31.620236483810885 35.178112479957804 H 0.0 **** 0.06
18641 C 130.2100363776851 131.93876933894333 46.00257468580784 C 0.0 **** -0.24
18642 H 131.18289516859832 131.8670775975416 46.488320747608 H 0.0 **** 0.06
18643 H 129.47293943929978 131.38250155650226 46.582930165940965 H 0.0 **** 0.06
18644 H 130.2726807391528 131.52009641430806 44.99825857797103 H 0.0 **** 0.06
18645 H 129.91021966348774 132.98501531414007 45.94275426956773 H 0.0 **** 0.06
18646 C 32.93663460420197 92.63637509471795 133.3738154952469 C 0.0 **** -0.24
18647 H 32.352114485985 92.77899152262614 132.46439315252826 H 0.0 **** 0.06
18648 H 32.40789050481587 91.95590647774858 134.04163458551417 H 0.0 **** 0.06
18649 H 33.07695712982391 93.5967490689759 133.86966083094072 H 0.0 **** 0.06
18650 H 33.90769631324957 92.2139632902693 133.1183677138402 H 0.0 **** 0.06
18651 C 27.697473659028105 64.86938316114738 87.92749925634183 C 0.0 **** -0.24
18652 H 26.86505609436321 64.17252453095041 88.0245880225163 H 0.0 **** 0.06
18653 H 27.393030793030675 65.71531372871335 87.31028435621289 H 0.0 **** 0.06
18654 H 28.54224782775657 64.36371939201388 87.46078851607876 H 0.0 **** 0.06
18655 H 27.98901512397387 65.22659624805418 88.91548386491638 H 0.0 **** 0.06
18656 C 21.588970954062383 119.72985677274465 144.9428828651752 C 0.0 **** -0.24
18657 H 21.934100896730328 119.75680891079386 143.90954503237384 H 0.0 **** 0.06
18658 H 21.401223661577347 120.74585908085842 145.29008518066365 H 0.0 **** 0.06
18659 H 22.35168901036039 119.26649835062827 145.56855955398936 H 0.0 **** 0.06
18660 H 20.667758666077063 119.14870397979576 145.0021836795098 H 0.0 **** 0.06
18661 C 86.6968181764294 111.39569816287076 51.81188576137522 C 0.0 **** -0.24
18662 H 85.84374935364097 110.84138031228815 52.20473754428819 H 0.0 **** 0.06
18663 H 86.49817589559706 111.68209591770326 50.77813152948643 H 0.0 **** 0.06
18664 H 87.58665451706067 110.76879711887122 51.851122276012774 H 0.0 **** 0.06
18665 H 86.85553356162312 112.29060983537133 52.41365375002957 H 0.0 **** 0.06
18666 C 150.39321067197397 160.75476587459465 125.27562554946127 C 0.0 **** -0.24
18667 H 150.78794430014733 160.60964972833557 126.28176166455142 H 0.0 **** 0.06
18668 H 149.65211080425257 161.55419366442996 125.28864056212961 H 0.0 **** 0.06
18669 H 149.92591142501828 159.83119895903718 124.93368000406963 H 0.0 **** 0.06
18670 H 151.20682121034406 161.022537021428 124.60185431481906 H 0.0 **** 0.06
18671 C 51.5498404501911 142.92360100584 78.52114790423528 C 0.0 **** -0.24
18672 H 52.31381454687332 142.3801029323219 79.07733278058407 H 0.0 **** 0.06
18673 H 51.977088191494346 143.29934226083407 77.59105861765141 H 0.0 **** 0.06
18674 H 51.19107048656724 143.76012607714216 79.12122299674098 H 0.0 **** 0.06
18675 H 50.71935543919743 142.25516013062276 78.29640005013971 H 0.0 **** 0.06
18676 C 160.44775595165993 129.91952417270062 142.31996416053323 C 0.0 **** -0.24
18677 H 161.48636040871105 129.80083725775745 142.62865232396453 H 0.0 **** 0.06
18678 H 159.79117885156805 129.513166221456 143.08904276570465 H 0.0 **** 0.06
18679 H 160.28509604211592 129.38568357613843 141.38336650312792 H 0.0 **** 0.06
18680 H 160.2307859290358 130.97819908003095 142.17700388430353 H 0.0 **** 0.06
18681 C 53.97212951510154 46.32852204323808 155.7386515625813 C 0.0 **** -0.24
18682 H 54.750021264503985 45.76731204996776 155.2202241566107 H 0.0 **** 0.06
18683 H 53.00162303551653 46.09185828085785 155.30239404141935 H 0.0 **** 0.06
18684 H 54.1668857716961 47.39582518061883 155.63718147932812 H 0.0 **** 0.06
18685 H 53.97233160127851 46.05753199880087 156.79453817884817 H 0.0 **** 0.06
18686 C 73.31427911738427 119.85585811004665 170.59386027943822 C 0.0 **** -0.24
18687 H 72.46777399357745 120.52158903372543 170.42654444585594 H 0.0 **** 0.06
18688 H 73.30066155556699 119.50456784585612 171.62630637359092 H 0.0 **** 0.06
18689 H 74.24309207215174 120.39385599090718 170.40541413979497 H 0.0 **** 0.06
18690 H 73.24433888763133 119.00248836275597 169.91906576685588 H 0.0 **** 0.06
18691 C 55.09338230790057 140.39378924582795 80.71183794078587 C 0.0 **** -0.24
18692 H 54.194300554685015 140.77252875986522 80.22594540077884 H 0.0 **** 0.06
18693 H 55.785367435932955 140.02241283236208 79.95581258823147 H 0.0 **** 0.06
18694 H 54.825634676907484 139.5830597018123 81.38902623239227 H 0.0 **** 0.06
18695 H 55.56684720348366 141.19737587828996 81.27634632462026 H 0.0 **** 0.06
18696 C 163.50030677707957 127.70252121702407 78.17501128596172 C 0.0 **** -0.24
18697 H 162.78448913865878 128.46896686260092 77.87790631125463 H 0.0 **** 0.06
18698 H 163.30024455550367 126.78534800503445 77.61992694410404 H 0.0 **** 0.06
18699 H 163.4040710715345 127.5093254201611 79.24303854908165 H 0.0 **** 0.06
18700 H 164.51157487088224 128.04674343584273 77.95712575139267 H 0.0 **** 0.06
18701 C 66.45728085093876 59.34648403152306 141.21670347331224 C 0.0 **** -0.24
18702 H 67.40976963315104 59.73098715110048 140.85203286209227 H 0.0 **** 0.06
18703 H 66.63648211014079 58.481756050194136 141.85674304362718 H 0.0 **** 0.06
18704 H 65.8372770608233 59.05029097174253 140.37092446013395 H 0.0 **** 0.06
18705 H 65.94735215841568 60.1217660611062 141.78838667476398 H 0.0 **** 0.06
18706 C 53.8603691606188 102.66148121943928 5.976885288699549 C 0.0 **** -0.24
18707 H 53.03665611379324 102.53077635381229 6.678428038460169 H 0.0 **** 0.06
18708 H 54.79251027939853 102.35149863778756 6.44916371987847 H 0.0 **** 0.06
18709 H 53.9287534861524 103.71081898985835 5.6900682544223855 H 0.0 **** 0.06
18710 H 53.68160331374895 102.0526917664219 5.09028708552637 H 0.0 **** 0.06
18711 C 22.003727834849343 166.365118489765 151.2216599873073 C 0.0 **** -0.24
18712 H 22.757070522094864 165.57970413842946 151.14759699296602 H 0.0 **** 0.06
18713 H 22.418882629801487 167.21627408698237 151.76248423260876 H 0.0 **** 0.06
18714 H 21.133493426093366 165.98408991519634 151.7547823422207 H 0.0 **** 0.06
18715 H 21.708566383052784 166.6793654371995 150.2206371337858 H 0.0 **** 0.06
18716 C 51.91507018312666 111.95943320197742 74.58930502549386 C 0.0 **** -0.24
18717 H 51.48853838873731 112.88411511005881 74.97999316733852 H 0.0 **** 0.06
18718 H 52.88612703081645 112.16959859621664 74.139090256246 H 0.0 **** 0.06
18719 H 51.247166363950726 111.54102177002764 73.83686398101342 H 0.0 **** 0.06
18720 H 52.038369370415126 111.24540710650899 75.40413399834314 H 0.0 **** 0.06
18721 C 136.3387914176339 11.229551260688538 96.5270355494037 C 0.0 **** -0.24
18722 H 136.0138547587406 10.717224975542806 97.43217869230926 H 0.0 **** 0.06
18723 H 136.5940158687199 10.492469954855657 95.76471812615927 H 0.0 **** 0.06
18724 H 137.2135570940951 11.84024083675316 96.74980994004756 H 0.0 **** 0.06
18725 H 135.53358294444757 11.866038635720145 96.16141649264597 H 0.0 **** 0.06
18726 C 116.83271525787046 155.21108072581276 99.46632780527256 C 0.0 **** -0.24
18727 H 115.81132621842056 154.83120654249902 99.49168963124345 H 0.0 **** 0.06
18728 H 117.17173272478118 155.27250160617405 98.43189422310348 H 0.0 **** 0.06
18729 H 117.48446361104453 154.5386455685647 100.0227468784613 H 0.0 **** 0.06
18730 H 116.86238996067851 156.20329872151981 99.91745314047034 H 0.0 **** 0.06
18731 C 170.93916101497416 20.377905078078896 142.39306069580013 C 0.0 **** -0.24
18732 H 171.64020408245682 21.092708134318684 141.9616694528024 H 0.0 **** 0.06
18733 H 170.44923780040182 20.82652802465725 143.25693039977244 H 0.0 **** 0.06
18734 H 171.47825988290847 19.483165641302833 142.70433057086888 H 0.0 **** 0.06
18735 H 170.18930236626596 20.10978734494529 141.64857289703946 H 0.0 **** 0.06
18736 C 12.664288190766023 49.33253131268327 112.72929848396981 C 0.0 **** -0.24
18737 H 12.197448597489526 49.27211867733902 111.74636751864475 H 0.0 **** 0.06
18738 H 13.682503720309832 48.949072947729505 112.67196634214892 H 0.0 **** 0.06
18739 H 12.09138601990059 48.73893649659051 113.4409426727369 H 0.0 **** 0.06
18740 H 12.684907158901161 50.37204665375248 113.0569292304258 H 0.0 **** 0.06
18741 C 53.69887557245502 162.32300202948457 167.52719955712763 C 0.0 **** -0.24
18742 H 54.53445199698156 161.76059238051374 167.94436453909228 H 0.0 **** 0.06
18743 H 53.980880240089135 163.37122581854328 167.42629142510563 H 0.0 **** 0.06
18744 H 52.83831982022613 162.23954839155263 168.19055802555332 H 0.0 **** 0.06
18745 H 53.44292953722706 161.91973792890005 166.5474476111633 H 0.0 **** 0.06
18746 C 50.5842384207339 132.78879198288567 71.76374651836953 C 0.0 **** -0.24
18747 H 51.63979552765407 132.95301045411716 71.97912910251277 H 0.0 **** 0.06
18748 H 49.98122344854232 133.18413174305326 72.58097879478254 H 0.0 **** 0.06
18749 H 50.39764190566842 131.71971356160532 71.65721820070246 H 0.0 **** 0.06
18750 H 50.318154663735456 133.2976960972982 70.8368844775595 H 0.0 **** 0.06
18751 C 103.17298439784204 107.0858640290063 14.938342485706329 C 0.0 **** -0.24
18752 H 103.92275324094473 107.02278305764622 15.726252775890693 H 0.0 **** 0.06
18753 H 102.42424187187518 106.3076624282595 15.086471095011397 H 0.0 **** 0.06
18754 H 103.65271107478577 106.95032704032917 13.969451779002625 H 0.0 **** 0.06
18755 H 102.6918605652686 108.06360822523837 14.97261119513847 H 0.0 **** 0.06
18756 C 120.61204871846218 109.36349285644172 166.54038038495435 C 0.0 **** -0.24
18757 H 119.60103577854557 109.03552372172106 166.78350234412213 H 0.0 **** 0.06
18758 H 121.33357512791903 108.69121926619277 167.006148657968 H 0.0 **** 0.06
18759 H 120.76449120371058 110.37636715421397 166.9150351196021 H 0.0 **** 0.06
18760 H 120.74858409832473 109.35057026597451 165.45977766550905 H 0.0 **** 0.06
18761 C 130.84106854305674 4.087004634585185 109.83296122267882 C 0.0 **** -0.24
18762 H 131.27601213871552 3.2598798191185097 109.2730212633023 H 0.0 **** 0.06
18763 H 131.63333226881807 4.638394815760165 110.34064348524177 H 0.0 **** 0.06
18764 H 130.13884031083722 3.697947727167275 110.57045998595297 H 0.0 **** 0.06
18765 H 130.31625917160073 4.7531994704405065 109.14776507048956 H 0.0 **** 0.06
18766 C 4.154406614176992 31.884961016036584 142.26776217458053 C 0.0 **** -0.24
18767 H 3.6960084140432627 32.73953209495369 142.76660741986495 H 0.0 **** 0.06
18768 H 3.374110121137875 31.24780256943626 141.85000061942185 H 0.0 **** 0.06
18769 H 4.7423765357750085 31.316740560293965 142.9879114957152 H 0.0 **** 0.06
18770 H 4.803064736360739 32.238702229694354 141.46617625376084 H 0.0 **** 0.06
18771 C 140.7853536073439 70.65054984771906 100.86964254564106 C 0.0 **** -0.24
18772 H 140.38398964835534 71.66116659574641 100.93454944466032 H 0.0 **** 0.06
18773 H 141.10374420968554 70.45126560079608 99.84541334522714 H 0.0 **** 0.06
18774 H 140.01501238206623 69.93452743350923 101.15653014178872 H 0.0 **** 0.06
18775 H 141.63850762617176 70.55461121121479 101.54047125316828 H 0.0 **** 0.06
18776 C 74.53205390733547 64.53428253180135 34.74818045539109 C 0.0 **** -0.24
18777 H 74.61234146220136 65.41567106840739 34.11313927699109 H 0.0 **** 0.06
18778 H 75.25842755558938 64.60325531488678 35.5586249592798 H 0.0 **** 0.06
18779 H 74.73145442085121 63.640864183313795 34.1567632892193 H 0.0 **** 0.06
18780 H 73.52673124569333 64.47662443571198 35.16558802413624 H 0.0 **** 0.06
18781 C 125.07170480923949 116.51840998965264 20.054935731411035 C 0.0 **** -0.24
18782 H 124.76178923346512 115.84806947306797 20.85627404774513 H 0.0 **** 0.06
18783 H 124.90708240852115 116.03293855117249 19.09213607463377 H 0.0 **** 0.06
18784 H 126.13070452512756 116.75286504048321 20.16731296736404 H 0.0 **** 0.06
18785 H 124.48894100688116 117.43781597055764 20.102874789423424 H 0.0 **** 0.06
18786 C 81.65864051542832 53.047286257099756 46.07981901296583 C 0.0 **** -0.24
18787 H 82.1562766577423 52.445235112645946 46.84101866764087 H 0.0 **** 0.06
18788 H 80.93944484285942 53.71357323567986 46.55663285898288 H 0.0 **** 0.06
18789 H 81.13938228699988 52.391558052305186 45.38049747446263 H 0.0 **** 0.06
18790 H 82.40075318957298 53.636720379766814 45.54142196890996 H 0.0 **** 0.06
18791 C 40.29573455400276 33.556738460243025 111.50928507265735 C 0.0 **** -0.24
18792 H 41.02730276170024 34.300025267764624 111.19206768721992 H 0.0 **** 0.06
18793 H 39.46014148024045 33.54849487725444 110.80963985211213 H 0.0 **** 0.06
18794 H 39.93320959914203 33.806018284941956 112.50671698532747 H 0.0 **** 0.06
18795 H 40.764267774163244 32.572548941593666 111.52769183398115 H 0.0 **** 0.06
18796 C 44.93210041323219 134.93727769646884 112.89515327428694 C 0.0 **** -0.24
18797 H 45.934934692406955 134.67174535187232 113.22888543093978 H 0.0 **** 0.06
18798 H 44.97471501878826 135.29220745149786 111.86497655351644 H 0.0 **** 0.06
18799 H 44.53211632975906 135.72375519524059 113.5351931669673 H 0.0 **** 0.06
18800 H 44.28710108141604 134.06011549221193 112.95120260713952 H 0.0 **** 0.06
18801 C 108.52720327598837 101.31293231887685 114.70668227472572 C 0.0 **** -0.24
18802 H 107.81506979223735 101.92452357100544 115.2602255994023 H 0.0 **** 0.06
18803 H 108.70035160448236 100.3797216155057 115.24371547389003 H 0.0 **** 0.06
18804 H 109.4681761993042 101.85383453706464 114.60458946370403 H 0.0 **** 0.06
18805 H 108.12534289733998 101.09358683340037 113.71720867996632 H 0.0 **** 0.06
18806 C 81.64065336979696 92.65393188614883 127.04339694006322 C 0.0 **** -0.24
18807 H 81.44436214434111 93.62019765399435 127.50867473013889 H 0.0 **** 0.06
18808 H 81.09983613371423 92.59031947231105 126.09834170016345 H 0.0 **** 0.06
18809 H 81.3068651990287 91.85622683835646 127.70753421428813 H 0.0 **** 0.06
18810 H 82.70915602866538 92.54913465195796 126.85854089392785 H 0.0 **** 0.06
18811 C 65.4395089162033 40.207231580404255 152.41489059553714 C 0.0 **** -0.24
18812 H 65.6153717277256 39.668858479909545 153.3455246945851 H 0.0 **** 0.06
18813 H 66.12450603542817 41.05303939396322 152.34881262148468 H 0.0 **** 0.06
18814 H 64.41111320444145 40.568191448237826 152.3926999066113 H 0.0 **** 0.06
18815 H 65.60646027012649 39.536600729380666 151.57089489434935 H 0.0 **** 0.06
18816 C 111.15226905443984 103.41393104590901 104.22075513761519 C 0.0 **** -0.24
18817 H 111.36948232500043 104.47712632497192 104.31742646435592 H 0.0 **** 0.06
18818 H 112.08530336718269 102.86129416404364 104.10679612454769 H 0.0 **** 0.06
18819 H 110.52376766392791 103.24989203404914 103.34605212531673 H 0.0 **** 0.06
18820 H 110.63052286164833 103.06741166057117 105.11274583624032 H 0.0 **** 0.06
18821 C 38.81624067421305 122.50694752539027 24.99057220108307 C 0.0 **** -0.24
18822 H 39.90568436609436 122.56043607303212 24.97195344253055 H 0.0 **** 0.06
18823 H 38.482095245075925 121.70149560233406 24.33612187152937 H 0.0 **** 0.06
18824 H 38.40077096011788 123.45358023199583 24.64528591950284 H 0.0 **** 0.06
18825 H 38.480412257083344 122.31140355993466 26.009411758308715 H 0.0 **** 0.06
18826 C 36.32831430636628 19.510850358346318 15.05144358989429 C 0.0 **** -0.24
18827 H 36.541874520614186 20.06842406013186 14.139817695251736 H 0.0 **** 0.06
18828 H 37.15771730233013 18.8367164199596 15.267472093671302 H 0.0 **** 0.06
18829 H 35.41433412850694 18.93153117444035 14.91723953928016 H 0.0 **** 0.06
18830 H 36.19945776308836 20.2058724953786 15.880745938707832 H 0.0 **** 0.06
18831 C 138.51681579034585 23.084003791552902 158.02005881645226 C 0.0 **** -0.24
18832 H 137.4751279966842 22.96059189317679 158.31718209645965 H 0.0 **** 0.06
18833 H 139.06739267552746 22.168390764060298 158.23646599822192 H 0.0 **** 0.06
18834 H 138.957174048683 23.91311127011911 158.57351754636164 H 0.0 **** 0.06
18835 H 138.56634825528727 23.293747895907124 156.95052378035726 H 0.0 **** 0.06
18836 C 12.407653888879757 51.963350680986835 127.94711834968354 C 0.0 **** -0.24
18837 H 12.937560863685704 52.394132336439625 127.0977227167393 H 0.0 **** 0.06
18838 H 12.100068510385604 50.946219282645 127.7036226652991 H 0.0 **** 0.06
18839 H 11.526581190736167 52.56681058811273 128.16867932618825 H 0.0 **** 0.06
18840 H 13.065206634587511 51.94669952984961 128.81573695656743 H 0.0 **** 0.06
18841 C 137.38460183869313 79.8552670136933 26.934240331695122 C 0.0 **** -0.24
18842 H 136.70283561644627 79.02926189181153 27.139672985082143 H 0.0 **** 0.06
18843 H 137.8383821099228 80.19200495176675 27.866561748120617 H 0.0 **** 0.06
18844 H 136.830503866934 80.67749139164825 26.480925090249016 H 0.0 **** 0.06
18845 H 138.1632677791118 79.52086709351542 26.2493153662601 H 0.0 **** 0.06
18846 C 54.822527835093425 104.87859834091594 149.3682700463553 C 0.0 **** -0.24
18847 H 55.2287413522772 104.49010702119313 148.43460884143906 H 0.0 **** 0.06
18848 H 53.966950256267495 104.27437146759164 149.67130156341042 H 0.0 **** 0.06
18849 H 54.50471712744235 105.91111840732162 149.2229570916878 H 0.0 **** 0.06
18850 H 55.588148173578304 104.83944263546485 150.14172945243027 H 0.0 **** 0.06
18851 C 169.97331447065295 68.25299377490757 148.625749813081 C 0.0 **** -0.24
18852 H 170.4516023205481 67.28104381940011 148.51026316969876 H 0.0 **** 0.06
18853 H 168.90474787555598 68.11462036822803 148.79322949282096 H 0.0 **** 0.06
18854 H 170.12626913617572 68.84200611770274 147.72170473560962 H 0.0 **** 0.06
18855 H 170.4111740318217 68.77430751026827 149.47695729506154 H 0.0 **** 0.06
18856 C 36.486224824435965 49.383802999990536 66.75048501030935 C 0.0 **** -0.24
18857 H 37.48300114560698 49.558113551962734 66.34311413236178 H 0.0 **** 0.06
18858 H 35.90587188966265 48.786939046948035 66.04550406574995 H 0.0 **** 0.06
18859 H 35.98868160231285 50.339554041516024 66.9145425269935 H 0.0 **** 0.06
18860 H 36.57006920736444 48.850127889424144 67.69669384256173 H 0.0 **** 0.06
18861 C 79.73389064304425 55.30828151836681 66.78456796600845 C 0.0 **** -0.24
18862 H 79.38238085809598 55.96739960489907 65.98952742648156 H 0.0 **** 0.06
18863 H 80.29021642811426 54.47917174004891 66.34747555276462 H 0.0 **** 0.06
18864 H 78.87857561150327 54.92097724256712 67.33893138625233 H 0.0 **** 0.06
18865 H 80.3815756171553 55.86704989543682 67.45970813233464 H 0.0 **** 0.06
18866 C 0.13846222506157346 56.47709623487036 17.997802197143756 C 0.0 **** -0.24
18867 H 1.0415989540284158 55.900235780223056 17.800251617662383 H 0.0 **** 0.06
18868 H 0.2534192693711361 57.483163772246854 17.592809345806955 H 0.0 **** 0.06
18869 H -0.02805293384273 56.535113808481924 19.073395449726092 H 0.0 **** 0.06
18870 H -0.7141897222402349 55.989839445727725 17.52383206034196 H 0.0 **** 0.06
18871 C 63.0931105978909 65.75909676602762 130.79047404954963 C 0.0 **** -0.24
18872 H 62.092106367093734 65.79162403572596 131.22082471624725 H 0.0 **** 0.06
18873 H 63.17120222220902 66.5028526813551 129.9967461022017 H 0.0 **** 0.06
18874 H 63.27896094797319 64.76703639797155 130.3789560576575 H 0.0 **** 0.06
18875 H 63.82845811986664 65.97504321452737 131.5651929167007 H 0.0 **** 0.06
18876 C 159.38880351589 31.372621342153167 138.90920343416138 C 0.0 **** -0.24
18877 H 160.27743366212263 30.810000871545355 138.6213286671124 H 0.0 **** 0.06
18878 H 159.6235524635124 32.43688497925109 138.9242707581135 H 0.0 **** 0.06
18879 H 159.065188925381 31.057002880165697 139.90137367468307 H 0.0 **** 0.06
18880 H 158.592131505655 31.18474670606264 138.1899614779273 H 0.0 **** 0.06
18881 C 78.36441865690455 20.32146209754211 171.87599672099122 C 0.0 **** -0.24
18882 H 78.0407356209596 20.988331769948246 172.67547363282534 H 0.0 **** 0.06
18883 H 79.37174267114005 20.59387910815417 171.561536104708 H 0.0 **** 0.06
18884 H 77.68274699963598 20.409355662508744 171.0306112294416 H 0.0 **** 0.06
18885 H 78.36230276742026 19.293409948014755 172.2384198023433 H 0.0 **** 0.06
18886 C 132.53265387739035 95.06342539132106 102.48366397793845 C 0.0 **** -0.24
18887 H 131.6755520809421 95.44631912840845 103.03750066671617 H 0.0 **** 0.06
18888 H 133.41308793383945 95.66268593883291 102.71878287152114 H 0.0 **** 0.06
18889 H 132.3293451016578 95.12131930568592 101.4142917203319 H 0.0 **** 0.06
18890 H 132.71321504091785 94.02631809487787 102.76417827850702 H 0.0 **** 0.06
18891 C 162.9064587511806 161.42813270305805 152.5631598933063 C 0.0 **** -0.24
18892 H 162.63725908425047 162.39008484735115 152.12700648569333 H 0.0 **** 0.06
18893 H 162.23063017822332 160.65897715686395 152.18826431746962 H 0.0 **** 0.06
18894 H 162.82555996315958 161.48571500148321 153.6479740757135 H 0.0 **** 0.06
18895 H 163.93035851041668 161.17757763978747 152.28697406915535 H 0.0 **** 0.06
18896 C 40.464728039235595 137.93703177152673 131.1630390153806 C 0.0 **** -0.24
18897 H 40.74990041703498 136.9671806351649 131.5718466718056 H 0.0 **** 0.06
18898 H 40.60620373323718 138.70634562464082 131.92231763072175 H 0.0 **** 0.06
18899 H 39.41774262967694 137.91101205056697 130.86308622627882 H 0.0 **** 0.06
18900 H 41.08597105493796 138.16339230326014 130.29636882688453 H 0.0 **** 0.06
18901 C 124.33060575314309 19.469966553301184 153.38667734355909 C 0.0 **** -0.24
18902 H 123.8028352559071 18.672727311368767 152.86333226032465 H 0.0 **** 0.06
18903 H 125.40332093202534 19.36122943671706 153.22591174573705 H 0.0 **** 0.06
18904 H 124.11329100721835 19.409720375198127 154.45337500499502 H 0.0 **** 0.06
18905 H 124.00174879425825 20.436431921885607 153.00289222688136 H 0.0 **** 0.06
18906 C 147.1322021192515 140.4644864777601 34.13170579947595 C 0.0 **** -0.24
18907 H 146.67996548692778 141.3018593574088 34.66456217503901 H 0.0 **** 0.06
18908 H 146.34976423519316 139.86942397302943 33.66057337343386 H 0.0 **** 0.06
18909 H 147.68767667498352 139.84422686540967 34.834503914875285 H 0.0 **** 0.06
18910 H 147.80949950477785 140.84549091795375 33.36696854371036 H 0.0 **** 0.06
18911 C 0.6892944949110245 139.3052286536924 103.44366487195504 C 0.0 **** -0.24
18912 H 0.16986424607958384 139.2783207580212 104.40270576154361 H 0.0 **** 0.06
18913 H 1.6440450550540646 139.8174814358025 103.56207786336313 H 0.0 **** 0.06
18914 H 0.07832867796413012 139.8377051136218 102.71511579264427 H 0.0 **** 0.06
18915 H 0.863952877523019 138.28658005135017 103.09727829566535 H 0.0 **** 0.06
18916 C 2.3689695478239443 9.979170391847028 124.36651742611943 C 0.0 **** -0.24
18917 H 2.738706085585207 9.672110589380232 123.38777211779083 H 0.0 **** 0.06
18918 H 1.369939661124235 9.571467499929703 124.52124242657297 H 0.0 **** 0.06
18919 H 2.329028462458318 11.067353151775187 124.41499603260453 H 0.0 **** 0.06
18920 H 3.0386226872031727 9.605063012042507 125.14089622552274 H 0.0 **** 0.06
18921 C 128.81900174284522 65.49262719298373 65.90211363342104 C 0.0 **** -0.24
18922 H 127.73794386436373 65.63011248702249 65.92830231629351 H 0.0 **** 0.06
18923 H 129.26581450185273 65.96475122807364 66.77677781143936 H 0.0 **** 0.06
18924 H 129.21988952591914 65.94790007798301 64.99708725734793 H 0.0 **** 0.06
18925 H 129.049440722633 64.42714352762323 65.90593828977273 H 0.0 **** 0.06
18926 C 76.6566064675293 26.225684981918477 20.961345254894468 C 0.0 **** -0.24
18927 H 76.64842737153556 26.26511709272635 22.05038950702715 H 0.0 **** 0.06
18928 H 75.89977444880094 25.520575486585905 20.617813485118916 H 0.0 **** 0.06
18929 H 77.63875751080438 25.901923268008282 20.616670234407138 H 0.0 **** 0.06
18930 H 76.43922402697699 27.21608265891183 20.560358317243185 H 0.0 **** 0.06
18931 C 61.19960210979964 13.25977917433616 12.015364142402404 C 0.0 **** -0.24
18932 H 62.11880492544498 13.285436641511893 11.429140554371656 H 0.0 **** 0.06
18933 H 60.827711397536405 14.275245514933658 12.151009222990297 H 0.0 **** 0.06
18934 H 61.40296909733702 12.813570333745929 12.98893629154378 H 0.0 **** 0.06
18935 H 60.45136825800455 12.664913305098707 11.492506745363016 H 0.0 **** 0.06
18936 C 81.94192311782277 126.27431214049463 97.49768124520389 C 0.0 **** -0.24
18937 H 80.95129125070534 125.82230494313492 97.4382909029029 H 0.0 **** 0.06
18938 H 82.68437501445128 125.5694438286497 97.12267185061418 H 0.0 **** 0.06
18939 H 82.16549422076662 126.52136201074379 98.53569594617974 H 0.0 **** 0.06
18940 H 81.96428474981204 127.18160035882005 96.89529583063674 H 0.0 **** 0.06
18941 C 55.048590603181495 38.23745293169739 7.67566937568256 C 0.0 **** -0.24
18942 H 55.43196742222962 37.478738703539534 6.992945319159901 H 0.0 **** 0.06
18943 H 55.88270293941186 38.73596656181212 8.169504324816955 H 0.0 **** 0.06
18944 H 54.413991434898065 37.76379225652522 8.424671141126339 H 0.0 **** 0.06
18945 H 54.46702580029475 38.968273808378484 7.1155431808226695 H 0.0 **** 0.06
18946 C 14.102289091768341 92.73856898747994 131.61788154587165 C 0.0 **** -0.24
18947 H 14.188836106173198 93.15038777907995 132.6229999772677 H 0.0 **** 0.06
18948 H 15.093327507504114 92.66464856311114 131.16879152376774 H 0.0 **** 0.06
18949 H 13.475322533843155 93.39119018188688 131.01054252179952 H 0.0 **** 0.06
18950 H 13.650922559188132 91.74739766896187 131.66931961605667 H 0.0 **** 0.06
18951 C 37.90505533091995 56.897342790761826 167.3786418863218 C 0.0 **** -0.24
18952 H 37.89125275233437 57.03764468669269 168.45908902884366 H 0.0 **** 0.06
18953 H 37.60029881603481 57.821475556978555 166.88847532711304 H 0.0 **** 0.06
18954 H 37.215196872757986 56.09783639700589 167.10820700841157 H 0.0 **** 0.06
18955 H 38.91318973234732 56.63093498688971 167.0596510987621 H 0.0 **** 0.06
18956 C 94.19683203239427 63.45248049191878 172.12786905333806 C 0.0 **** -0.24
18957 H 93.30930877509152 64.05476111830997 171.93174990033017 H 0.0 **** 0.06
18958 H 94.65468380433174 63.1622256968637 171.18207726749966 H 0.0 **** 0.06
18959 H 93.91313126257097 62.55913491112484 172.68354315729914 H 0.0 **** 0.06
18960 H 94.90787809048257 64.03412411193196 172.7134101278437 H 0.0 **** 0.06
18961 C 143.86606768659047 130.38603645388218 56.377656499558725 C 0.0 **** -0.24
18962 H 143.03805642398018 130.48886139963483 55.675243796635186 H 0.0 **** 0.06
18963 H 143.52725380296258 130.65191462998249 57.37955278446262 H 0.0 **** 0.06
18964 H 144.6787621965845 131.0472881841287 56.0794486404464 H 0.0 **** 0.06
18965 H 144.21763724296397 129.3536568284608 56.375131082615894 H 0.0 **** 0.06
18966 C 131.0409850679448 161.92334586922655 79.6599437775223 C 0.0 **** -0.24
18967 H 131.10014393408196 160.83800663174188 79.73764922328508 H 0.0 **** 0.06
18968 H 130.42568556535863 162.3117961440459 80.47244432163995 H 0.0 **** 0.06
18969 H 130.59481313716063 162.1956533424219 78.70365228305263 H 0.0 **** 0.06
18970 H 132.04319316069652 162.3479323173197 79.72826293386487 H 0.0 **** 0.06
18971 C 56.80248007692711 51.61668487185703 172.06073185963274 C 0.0 **** -0.24
18972 H 56.57800426235566 51.72607475416304 173.12224053918845 H 0.0 **** 0.06
18973 H 55.89841902514155 51.320836751596914 171.52737107781456 H 0.0 **** 0.06
18974 H 57.569580277356835 50.8544151446993 171.92827695801645 H 0.0 **** 0.06
18975 H 57.16159237973622 52.567067165579346 171.6672436075003 H 0.0 **** 0.06
18976 C 50.82107524563173 107.64128969018884 109.65177872661272 C 0.0 **** -0.24
18977 H 49.944132310561514 107.21192244888653 109.16852619152846 H 0.0 **** 0.06
18978 H 51.658360833699334 107.63819056271802 108.95260601931739 H 0.0 **** 0.06
18979 H 51.07879771480418 107.04935769620056 110.53080026614421 H 0.0 **** 0.06
18980 H 50.6041413092248 108.66553267761611 109.9543479636798 H 0.0 **** 0.06
18981 C 86.18992636146366 140.1580935314189 161.32600404222427 C 0.0 **** -0.24
18982 H 86.80764582366258 140.88157557086782 161.85852221369734 H 0.0 **** 0.06
18983 H 86.2420472840156 140.3541886197927 160.25540687722824 H 0.0 **** 0.06
18984 H 85.15735930481596 140.24501069671072 161.6621704107759 H 0.0 **** 0.06
18985 H 86.55403945355688 139.15036360170305 161.52951391758904 H 0.0 **** 0.06
18986 C 27.14908798783253 3.0769348371698015 36.5930601040763 C 0.0 **** -0.24
18987 H 27.991488453598862 2.3862480492757925 36.593661595169124 H 0.0 **** 0.06
18988 H 26.543874479883925 2.91193940056354 37.484063628721174 H 0.0 **** 0.06
18989 H 26.541331315228376 2.9072542933002694 35.704190299744454 H 0.0 **** 0.06
18990 H 27.519770960796734 4.101678847925001 36.589058256391326 H 0.0 **** 0.06
18991 C 136.68564951910702 112.5968477750597 104.12295982411982 C 0.0 **** -0.24
18992 H 136.57058702838066 112.15545861799018 105.11258722944848 H 0.0 **** 0.06
18993 H 136.37310957144842 111.87799654385964 103.36587405638701 H 0.0 **** 0.06
18994 H 137.7311472193631 112.86266040858646 103.96226935185413 H 0.0 **** 0.06
18995 H 136.06788626232662 113.49258366012765 104.05162964398323 H 0.0 **** 0.06
18996 C 42.84543401161676 66.94292236852311 156.82617419131012 C 0.0 **** -0.24
18997 H 43.277886270651436 67.34141438364657 155.9084158667815 H 0.0 **** 0.06
18998 H 42.230375591133395 67.7083445407552 157.30077113524567 H 0.0 **** 0.06
18999 H 43.64431428388252 66.64571886032803 157.50543081842477 H 0.0 **** 0.06
19000 H 42.22812065534981 66.07527630511089 156.59029126779743 H 0.0 **** 0.06
19001 C 127.42206387738125 41.794604869145715 156.5235203018645 C 0.0 **** -0.24
19002 H 127.73093785046439 40.92389988439932 157.10294753268147 H 0.0 **** 0.06
19003 H 126.3353927048253 41.80783363165661 156.43908127545768 H 0.0 **** 0.06
19004 H 127.86388716502708 41.743446664430266 155.52826595613726 H 0.0 **** 0.06
19005 H 127.75960360155094 42.70177605758413 157.02497275357666 H 0.0 **** 0.06
19006 C 111.34913753306358 2.7836369491196393 58.34523776896907 C 0.0 **** -0.24
19007 H 112.21867401221041 3.3771188546176774 58.06401062809307 H 0.0 **** 0.06
19008 H 111.14848668200756 2.9149261099847052 59.40918401558223 H 0.0 **** 0.06
19009 H 111.54523349281754 1.7315349161187683 58.13894945896131 H 0.0 **** 0.06
19010 H 110.48377961794807 3.1118744634678706 57.76899822429394 H 0.0 **** 0.06
19011 C 19.76825919802279 31.90117908384839 157.42472216786072 C 0.0 **** -0.24
19012 H 20.312616925784667 31.147870345855765 157.99433414002203 H 0.0 **** 0.06
19013 H 19.915242639462498 32.87954668432039 157.88333302691368 H 0.0 **** 0.06
19014 H 18.705040665487815 31.65684475512431 157.42241354045626 H 0.0 **** 0.06
19015 H 20.13872251238036 31.920200060206867 156.4007918662619 H 0.0 **** 0.06
19016 C 2.7000296556221315 153.3107044016702 67.28616374613104 C 0.0 **** -0.24
19017 H 2.8382396117850135 154.39038638820858 67.2291374364646 H 0.0 **** 0.06
19018 H 1.6611614736758895 153.09028473885627 67.53301446289986 H 0.0 **** 0.06
19019 H 3.352890558362219 152.90094174004338 68.05692336536457 H 0.0 **** 0.06
19020 H 2.9487492721153785 152.8615860630527 66.32384649190386 H 0.0 **** 0.06
19021 C 88.27967739517595 25.980184051901546 3.3586976713567083 C 0.0 **** -0.24
19022 H 87.85045795814695 26.78601735093912 2.7630278274806415 H 0.0 **** 0.06
19023 H 87.92692485622406 25.0212124001618 2.979438924938563 H 0.0 **** 0.06
19024 H 87.9738817709132 26.095218598654526 4.3981394679841515 H 0.0 **** 0.06
19025 H 89.3669010593265 26.019953698776135 3.29322050482466 H 0.0 **** 0.06
19026 C 26.09039909571399 36.485689246931685 68.99886326228989 C 0.0 **** -0.24
19027 H 26.217681819910496 35.82785308125659 69.85892133448027 H 0.0 **** 0.06
19028 H 25.591058215245027 35.94171844673099 68.19755082787793 H 0.0 **** 0.06
19029 H 27.067077186115597 36.82549663122305 68.65417059257481 H 0.0 **** 0.06
19030 H 25.486919906187893 37.3465547630085 69.28665766120838 H 0.0 **** 0.06
19031 C 63.94537432988045 153.61908287939005 156.7372282696793 C 0.0 **** -0.24
19032 H 64.38897370398138 152.69769250890064 157.11311061227946 H 0.0 **** 0.06
19033 H 64.57727546481465 154.46423220378057 157.0128290681261 H 0.0 **** 0.06
19034 H 62.95474677819743 153.74844045990375 157.1729458964801 H 0.0 **** 0.06
19035 H 63.86179231612829 153.5656511788165 155.6518259107317 H 0.0 **** 0.06
19036 C 21.91548199149208 33.999468093809156 125.14942484733041 C 0.0 **** -0.24
19037 H 22.0128337552923 34.48883018063137 126.11817793684571 H 0.0 **** 0.06
19038 H 21.871888832598536 32.91882566882529 125.29072528675954 H 0.0 **** 0.06
19039 H 22.77483692531907 34.25067624641434 124.52692924527844 H 0.0 **** 0.06
19040 H 21.001841854571474 34.33891031779535 124.66071544371954 H 0.0 **** 0.06
19041 C 83.23134393483551 93.6303875625641 1.7374810110553653 C 0.0 **** -0.24
19042 H 83.34231515480148 92.67284340927026 1.2299785672493044 H 0.0 **** 0.06
19043 H 82.8051113672584 94.359119600615 1.0475639022319285 H 0.0 **** 0.06
19044 H 84.2082787893354 93.97784387724062 2.074702904244475 H 0.0 **** 0.06
19045 H 82.5708006935272 93.51261776352555 2.5959587683686607 H 0.0 **** 0.06
19046 C 131.4800814628515 90.00011611778962 20.139606744783634 C 0.0 **** -0.24
19047 H 131.575082027576 89.19867806805424 19.40752744111967 H 0.0 **** 0.06
19048 H 130.6219201786798 90.62252252906971 19.887359571170066 H 0.0 **** 0.06
19049 H 132.3855162569552 90.60815319548257 20.13148441348841 H 0.0 **** 0.06
19050 H 131.34013675713496 89.5716695596857 21.131543830960823 H 0.0 **** 0.06
19051 C 31.51058314475442 100.30358451652143 142.40884769936395 C 0.0 **** -0.24
19052 H 31.41260126289386 100.05075051061664 141.35304387982862 H 0.0 **** 0.06
19053 H 30.89982221211578 99.62292675626824 143.00223062013046 H 0.0 **** 0.06
19054 H 31.1749316973234 101.32795662898258 142.5697049644123 H 0.0 **** 0.06
19055 H 32.55430152188434 100.21073262124213 142.70960120097712 H 0.0 **** 0.06
19056 C 50.28718196881266 166.69367098091382 44.17423158190229 C 0.0 **** -0.24
19057 H 51.255589432806346 167.10624992578573 43.892823056012745 H 0.0 **** 0.06
19058 H 50.419515596827466 165.6776088536618 44.546779251043816 H 0.0 **** 0.06
19059 H 49.631023788232596 166.67914540460836 43.303147960833286 H 0.0 **** 0.06
19060 H 49.841668454452304 167.31258778532012 44.95361974414725 H 0.0 **** 0.06
19061 C 151.86562178347498 27.913733865886087 132.32320601769018 C 0.0 **** -0.24
19062 H 151.58194501183516 28.963259947843483 132.40533210886414 H 0.0 **** 0.06
19063 H 152.9323664506561 27.809710003608302 132.52107726620503 H 0.0 **** 0.06
19064 H 151.64645772024576 27.557320104148403 131.3173474327514 H 0.0 **** 0.06
19065 H 151.30175410216717 27.327766096251793 133.0485570895294 H 0.0 **** 0.06
19066 C 55.4593601011222 17.37728908276992 31.46035909502963 C 0.0 **** -0.24
19067 H 55.49843009461665 16.288817034475613 31.43685833483414 H 0.0 **** 0.06
19068 H 56.38825731841649 17.765625463335937 31.878421302639595 H 0.0 **** 0.06
19069 H 54.62025770553453 17.697579250300663 32.078442892085775 H 0.0 **** 0.06
19070 H 55.32982847180023 17.757871071499437 30.447599958055534 H 0.0 **** 0.06
19071 C 136.76167711120232 64.46148328222546 71.93467398831251 C 0.0 **** -0.24
19072 H 136.0736615951066 63.80952103616539 72.47133031907964 H 0.0 **** 0.06
19073 H 136.69763464216317 64.25706640827184 70.8657322216107 H 0.0 **** 0.06
19074 H 137.78036360419893 64.27776423507203 72.27881258844103 H 0.0 **** 0.06
19075 H 136.49727101629634 65.50261152082362 72.1228218691646 H 0.0 **** 0.06
19076 C 34.23181977569499 44.10888165415406 107.12954282195616 C 0.0 **** -0.24
19077 H 33.47615127430083 44.89431067785165 107.12401598834802 H 0.0 **** 0.06
19078 H 33.75427681630936 43.14405207693454 106.96092558212737 H 0.0 **** 0.06
19079 H 34.73999712161651 44.09984602827265 108.0942211884053 H 0.0 **** 0.06
19080 H 34.95844090753326 44.29918356573859 106.33903278022873 H 0.0 **** 0.06
19081 C 38.99015574661394 16.06071149851863 102.34238273352452 C 0.0 **** -0.24
19082 H 37.98918960210452 16.03960166385869 102.77280964334733 H 0.0 **** 0.06
19083 H 39.24683304160526 15.06857288346356 101.96992073083311 H 0.0 **** 0.06
19084 H 39.70825749326363 16.360567206059898 103.1055561206058 H 0.0 **** 0.06
19085 H 39.01643888576312 16.77605913250349 101.51897080204384 H 0.0 **** 0.06
19086 C 25.260939667624996 3.536475550193231 49.0120504474599 C 0.0 **** -0.24
19087 H 26.218022088645654 3.3799748492984563 48.51354770905465 H 0.0 **** 0.06
19088 H 24.822606618542068 4.473552336881063 48.669003199783305 H 0.0 **** 0.06
19089 H 25.416498203015465 3.5812068929517835 50.08980961564714 H 0.0 **** 0.06
19090 H 24.589001742451188 2.7117477530941017 48.77562359689591 H 0.0 **** 0.06
19091 C 74.19516963582015 67.94185483659476 74.35882964131727 C 0.0 **** -0.24
19092 H 74.47940324604546 67.92506615253498 75.41098722458509 H 0.0 **** 0.06
19093 H 73.66875009581338 68.87212578869863 74.14065616681604 H 0.0 **** 0.06
19094 H 73.54374564686123 67.09583207396976 74.14413356853208 H 0.0 **** 0.06
19095 H 75.0899736942299 67.87788300466772 73.74018235108011 H 0.0 **** 0.06
19096 C 127.5327089476636 101.87189828270002 115.39329724562828 C 0.0 **** -0.24
19097 H 127.71835448062751 102.7130343185797 116.06080460479939 H 0.0 **** 0.06
19098 H 126.48909276972091 101.56605091773784 115.4754549263514 H 0.0 **** 0.06
19099 H 128.17830647794653 101.03914018079024 115.66987620474242 H 0.0 **** 0.06
19100 H 127.74374813903597 102.17104109904008 114.36640473316263 H 0.0 **** 0.06
19101 C 15.800290189910129 62.12533747509741 45.708410531443704 C 0.0 **** -0.24
19102 H 16.70520839384608 61.562508200583494 45.482354345239955 H 0.0 **** 0.06
19103 H 15.924595454079565 62.64662712270814 46.65786063803709 H 0.0 **** 0.06
19104 H 14.954227578109112 61.44136329382451 45.776788651538254 H 0.0 **** 0.06
19105 H 15.617769122421464 62.8521119748616 44.916675677718175 H 0.0 **** 0.06
19106 C 36.70986058560095 128.4950668342329 15.019574204586888 C 0.0 **** -0.24
19107 H 37.20194296860319 128.73569897664805 15.963095982967104 H 0.0 **** 0.06
19108 H 36.40047722547666 129.4173107682895 14.526526253178673 H 0.0 **** 0.06
19109 H 35.835272542910786 127.87486170500995 15.215532195640094 H 0.0 **** 0.06
19110 H 37.40323991267127 127.95367044271029 14.377035331806923 H 0.0 **** 0.06
19111 C 109.53957426505954 94.1767467330842 69.94026420719925 C 0.0 **** -0.24
19112 H 110.62240604861307 94.16996991761587 70.06245901702913 H 0.0 **** 0.06
19113 H 109.28963354069765 93.93392283166239 68.90670268683684 H 0.0 **** 0.06
19114 H 109.15358302983293 95.16610812766393 70.18423748686892 H 0.0 **** 0.06
19115 H 109.09395263808875 93.43776952917707 70.60599856575034 H 0.0 **** 0.06
19116 C 36.1549266951058 42.88260109665943 165.88309438899347 C 0.0 **** -0.24
19117 H 35.635149553908306 43.11636348588135 164.9535089559394 H 0.0 **** 0.06
19118 H 35.71081645372354 41.993979571909136 166.33304560722 H 0.0 **** 0.06
19119 H 36.06240521322647 43.72329086424165 166.57072050571404 H 0.0 **** 0.06
19120 H 37.208430287747305 42.69725345056747 165.67453119766958 H 0.0 **** 0.06
19121 C 57.3098108162835 30.747861562529394 48.64132406153509 C 0.0 **** -0.24
19122 H 56.34512888150434 30.30195948919554 48.398516938696545 H 0.0 **** 0.06
19123 H 57.78685972596939 30.172968925940353 49.43554884119435 H 0.0 **** 0.06
19124 H 57.16184342671606 31.77530937980437 48.97502279039888 H 0.0 **** 0.06
19125 H 57.94541123094427 30.741208455177514 47.75620767585076 H 0.0 **** 0.06
19126 C 22.79141974518444 5.9448487834037 33.507503511822506 C 0.0 **** -0.24
19127 H 23.02379286842691 4.886960192310511 33.626837601175 H 0.0 **** 0.06
19128 H 22.859891338759667 6.442932519442621 34.47493952247311 H 0.0 **** 0.06
19129 H 21.78060116277024 6.053213830195148 33.11295690525526 H 0.0 **** 0.06
19130 H 23.501393610780895 6.396288591666433 32.81528001838677 H 0.0 **** 0.06
19131 C 154.83229056333548 144.2408653035329 113.48027183582082 C 0.0 **** -0.24
19132 H 155.16890591070933 143.27120938269144 113.11100264081932 H 0.0 **** 0.06
19133 H 154.42863383393814 144.12537092497257 114.48656428868395 H 0.0 **** 0.06
19134 H 154.05835024326595 144.63121060933938 112.82095396788196 H 0.0 **** 0.06
19135 H 155.67439255867927 144.93213626017004 113.50307232815379 H 0.0 **** 0.06
19136 C 86.85797316045682 127.0529430410856 18.14836470658534 C 0.0 **** -0.24
19137 H 85.83605694327501 127.20998260979914 18.49111820094751 H 0.0 **** 0.06
19138 H 86.84255793767971 126.5774114592866 17.16672968126028 H 0.0 **** 0.06
19139 H 87.38352730628831 126.41004172849938 18.85534275565027 H 0.0 **** 0.06
19140 H 87.3702040738039 128.0122120202073 18.079737602959426 H 0.0 **** 0.06
19141 C 146.3590489404666 27.199900589893616 124.42638691236661 C 0.0 **** -0.24
19142 H 146.6369455809781 28.188921361492163 124.79110675570368 H 0.0 **** 0.06
19143 H 146.59104996647707 26.45447227572445 125.18742787924546 H 0.0 **** 0.06
19144 H 146.91832506959065 26.97802439159362 123.51753634876303 H 0.0 **** 0.06
19145 H 145.29026908447608 27.179280316918152 124.21027896355588 H 0.0 **** 0.06
19146 C 51.987512651186904 100.08648478840865 2.0501586258505995 C 0.0 **** -0.24
19147 H 51.82815234973614 100.34765729167003 3.0964756957697546 H 0.0 **** 0.06
19148 H 52.1353796148249 99.00946012267212 1.9633343705651214 H 0.0 **** 0.06
19149 H 52.87095470307909 100.60567275030064 1.677206598651992 H 0.0 **** 0.06
19150 H 51.11744687476231 100.38327604273178 1.4651794307843602 H 0.0 **** 0.06
19151 C 136.46979208585998 81.16029041133007 32.18269514165209 C 0.0 **** -0.24
19152 H 137.34668634339698 81.65944135511786 31.76961645793976 H 0.0 **** 0.06
19153 H 136.31901137397855 80.20892538796818 31.67255403031527 H 0.0 **** 0.06
19154 H 135.5923608188463 81.79183740657224 32.04145787404387 H 0.0 **** 0.06
19155 H 136.62123338949323 80.98213268763104 33.24792919022998 H 0.0 **** 0.06
19156 C 50.92087950984126 58.56989161837157 116.85519639067769 C 0.0 **** -0.24
19157 H 51.15214985083753 59.632738954575075 116.93430258658296 H 0.0 **** 0.06
19158 H 50.45326132428306 58.37108366490166 115.8916520100289 H 0.0 **** 0.06
19159 H 50.23792351357969 58.287420644328265 117.65685246561443 H 0.0 **** 0.06
19160 H 51.84095094505969 57.99107869181027 116.94094811189385 H 0.0 **** 0.06
19161 C 158.79411380453803 124.03559312247586 4.400346787225182 C 0.0 **** -0.24
19162 H 158.3019815917945 123.43983460605881 5.16948258588954 H 0.0 **** 0.06
19163 H 159.0028235317098 123.40826492674665 3.5340519444067056 H 0.0 **** 0.06
19164 H 159.72792886156856 124.43612668327881 4.793235390456168 H 0.0 **** 0.06
19165 H 158.140965375201 124.85769220580852 4.105712363292568 H 0.0 **** 0.06
19166 C 52.767125741053675 61.44574300868288 69.35836375770486 C 0.0 **** -0.24
19167 H 52.09754068523888 61.220002022750265 70.18849811692601 H 0.0 **** 0.06
19168 H 52.18445241134181 61.797739205065795 68.50709138484038 H 0.0 **** 0.06
19169 H 53.31259434942817 60.54420870443187 69.07834929830463 H 0.0 **** 0.06
19170 H 53.47279838447594 62.21854433311205 69.66188541505603 H 0.0 **** 0.06
19171 C 145.22244661217326 36.45629787630577 14.793105138243448 C 0.0 **** -0.24
19172 H 146.0256279627474 35.99030821223516 15.364536284591992 H 0.0 **** 0.06
19173 H 145.30314167188982 37.54037014118046 14.87250170498271 H 0.0 **** 0.06
19174 H 144.26061424720825 36.132280497409226 15.18991417281461 H 0.0 **** 0.06
19175 H 145.30246408765083 36.16023065699875 13.747646119103877 H 0.0 **** 0.06
19176 C 55.554873917136774 30.42135500606244 39.86086790599265 C 0.0 **** -0.24
19177 H 56.116795313421164 31.353867653286727 39.80826855072108 H 0.0 **** 0.06
19178 H 56.09564332067282 29.705859120961406 40.481426777911054 H 0.0 **** 0.06
19179 H 55.43468777112329 30.01331111480158 38.85697315244852 H 0.0 **** 0.06
19180 H 54.574005330745536 30.612685770694583 40.29500557328352 H 0.0 **** 0.06
19181 C 19.11948786433939 60.142324943910765 86.66950578208437 C 0.0 **** -0.24
19182 H 18.548393090552906 60.64148829019787 87.45239268421187 H 0.0 **** 0.06
19183 H 19.976197168052124 60.7581963694802 86.39635612654443 H 0.0 **** 0.06
19184 H 18.48410701771047 59.99439273201469 85.79613905917081 H 0.0 **** 0.06
19185 H 19.467091814880348 59.175791693134414 87.03312114121164 H 0.0 **** 0.06
19186 C 122.0218745019879 19.216165096515283 45.71071521266698 C 0.0 **** -0.24
19187 H 122.64779306460062 19.916877545959153 46.26228675878254 H 0.0 **** 0.06
19188 H 120.97581234854252 19.382510588102775 45.96980276515052 H 0.0 **** 0.06
19189 H 122.30324604345608 18.195491144719085 45.971285635885806 H 0.0 **** 0.06
19190 H 122.16109214970359 19.369697258046074 44.64082526812521 H 0.0 **** 0.06
19191 C 63.37957076454934 83.84188347901079 55.60116950378571 C 0.0 **** -0.24
19192 H 63.8987950192941 84.21716390592269 54.72022687545061 H 0.0 **** 0.06
19193 H 64.09706879933267 83.36259644006725 56.2687230570786 H 0.0 **** 0.06
19194 H 62.625435694478185 83.11659434924874 55.2973552012277 H 0.0 **** 0.06
19195 H 62.89828828529687 84.67036438822788 56.119995792514075 H 0.0 **** 0.06
19196 C 53.88840401916161 83.55241753988668 124.99998344989902 C 0.0 **** -0.24
19197 H 53.138190538687496 82.77344880474811 125.13068000331114 H 0.0 **** 0.06
19198 H 54.88077876806621 83.1348364891702 125.17174964306204 H 0.0 **** 0.06
19199 H 53.70520197417302 84.35742630721165 125.71161613467797 H 0.0 **** 0.06
19200 H 53.8301407408309 83.94575798271273 123.98437874713198 H 0.0 **** 0.06
19201 C 88.82951599790863 42.76929652288399 125.29691062757854 C 0.0 **** -0.24
19202 H 88.7296759017791 43.15259072020733 124.28170932628623 H 0.0 **** 0.06
19203 H 88.16909721666586 41.911139839259604 125.42828936808192 H 0.0 **** 0.06
19204 H 88.55841666634565 43.5495445527539 126.00818156872745 H 0.0 **** 0.06
19205 H 89.86112301193066 42.46296648292734 125.46924765333668 H 0.0 **** 0.06
19206 C 136.78887049618817 159.6058191022292 34.895648307354406 C 0.0 **** -0.24
19207 H 136.38772847951597 160.02209566299314 35.81970463239213 H 0.0 **** 0.06
19208 H 137.17339269502745 158.60386329591697 35.08533335172788 H 0.0 **** 0.06
19209 H 137.5948549067699 160.24165698642526 34.530703830038306 H 0.0 **** 0.06
19210 H 135.998349109306 159.55682422482766 34.14629682451783 H 0.0 **** 0.06
19211 C 77.57288512809953 26.18552174767916 65.10442466956916 C 0.0 **** -0.24
19212 H 76.73242957099694 26.256869296896724 64.41384869567402 H 0.0 **** 0.06
19213 H 77.74296202743727 25.139582419366633 65.36264937116351 H 0.0 **** 0.06
19214 H 77.3485908900488 26.75200960914711 66.00823094418683 H 0.0 **** 0.06
19215 H 78.46727385816837 26.593449100635638 64.63202727525449 H 0.0 **** 0.06
19216 C 8.73401597018779 132.49589080411326 25.545836244685745 C 0.0 **** -0.24
19217 H 7.866329356521625 133.1550972870437 25.50405145774448 H 0.0 **** 0.06
19218 H 8.89158420973557 132.16846068549538 26.573893137905657 H 0.0 **** 0.06
19219 H 9.614729016689793 133.03356300419514 25.196094495601074 H 0.0 **** 0.06
19220 H 8.561388296198253 131.62839899831275 24.9091103785903 H 0.0 **** 0.06
19221 C 156.9765301810405 59.668023494695376 89.95457053669895 C 0.0 **** -0.24
19222 H 157.13157580746338 59.096175089472695 90.8695860807178 H 0.0 **** 0.06
19223 H 155.99147141438402 59.441450840757284 89.54743514754631 H 0.0 **** 0.06
19224 H 157.7423955448491 59.40027703494542 89.22544139030595 H 0.0 **** 0.06
19225 H 157.04289915508366 60.73316463344753 90.17570554356848 H 0.0 **** 0.06
19226 C 143.33160409774203 62.9491453520949 96.2913562647966 C 0.0 **** -0.24
19227 H 142.78749531221786 62.37803306161783 95.53955140478755 H 0.0 **** 0.06
19228 H 144.00507589897617 62.285091955373545 96.83407445263003 H 0.0 **** 0.06
19229 H 142.6254788871842 63.39965341890999 96.98862009136698 H 0.0 **** 0.06
19230 H 143.91024236072704 63.7331166756349 95.80327645882093 H 0.0 **** 0.06
19231 C 134.05702649462012 34.93129918753445 112.76736973658868 C 0.0 **** -0.24
19232 H 135.13339080424504 34.97275443331512 112.59879768333823 H 0.0 **** 0.06
19233 H 133.8302201828811 35.323236258673006 113.75944203569892 H 0.0 **** 0.06
19234 H 133.7184514896643 33.89673783561497 112.7001760001593 H 0.0 **** 0.06
19235 H 133.5476702666187 35.53075188932087 112.01396292148868 H 0.0 **** 0.06
19236 C 24.02490085405529 136.19379158078294 25.197108205842113 C 0.0 **** -0.24
19237 H 23.77319958269001 135.43558786221396 25.938558657729587 H 0.0 **** 0.06
19238 H 23.37397749928219 137.05868146356505 25.326582037063837 H 0.0 **** 0.06
19239 H 23.886942580463952 135.7826084917679 24.196603235673074 H 0.0 **** 0.06
19240 H 25.06355817306008 136.49754749128232 25.324754142238483 H 0.0 **** 0.06
19241 C 44.30558982616685 27.9104963370591 19.20109418061201 C 0.0 **** -0.24
19242 H 44.26050470490543 26.860761283042734 18.910410772790414 H 0.0 **** 0.06
19243 H 43.325257549938186 28.23207673523774 19.555332676995143 H 0.0 **** 0.06
19244 H 44.59752105338433 28.51289369238566 18.34178706115312 H 0.0 **** 0.06
19245 H 45.03815399992341 28.034735721237126 19.998204884424496 H 0.0 **** 0.06
19246 C 28.824081046304954 119.78815167109065 114.39495518641968 C 0.0 **** -0.24
19247 H 29.163036177939148 118.86104962041503 114.85576138608104 H 0.0 **** 0.06
19248 H 29.30811725351559 119.90969558549756 113.42562798286656 H 0.0 **** 0.06
19249 H 29.083083423792942 120.62910522916593 115.0389125536106 H 0.0 **** 0.06
19250 H 27.743083123734323 119.75327981703975 114.26037575220266 H 0.0 **** 0.06
19251 C 44.74169269271033 37.36725892484003 24.231059524029888 C 0.0 **** -0.24
19252 H 45.355799184813776 36.67888996492559 24.81229923051268 H 0.0 **** 0.06
19253 H 43.96940633430407 37.7942880127529 24.871969942138207 H 0.0 **** 0.06
19254 H 44.27364113389757 36.82860419373554 23.40780927524804 H 0.0 **** 0.06
19255 H 45.36785601081385 38.16594150376716 23.833969093895007 H 0.0 **** 0.06
19256 C 16.69619921449447 96.76117071322972 123.38398019119126 C 0.0 **** -0.24
19257 H 17.29681564452264 96.312927893547 122.59231329668248 H 0.0 **** 0.06
19258 H 15.86238205249375 96.10232633622229 123.62445510838089 H 0.0 **** 0.06
19259 H 16.313599001843514 97.72446358411923 123.0477970777558 H 0.0 **** 0.06
19260 H 17.314031576881234 96.90466044531576 124.27002084118939 H 0.0 **** 0.06
19261 C 168.35253701167244 99.18932539391449 51.22412869661683 C 0.0 **** -0.24
19262 H 168.41524394645847 100.22961846489 50.90711085636289 H 0.0 **** 0.06
19263 H 169.2709497958632 98.90960717999133 51.74144668226974 H 0.0 **** 0.06
19264 H 168.21811524720644 98.55042515778615 50.35098983172618 H 0.0 **** 0.06
19265 H 167.50448693447603 99.0662271065737 51.89803749920661 H 0.0 **** 0.06
19266 C 34.5697698832185 142.47410189302968 128.9372170939741 C 0.0 **** -0.24
19267 H 35.50075925884403 142.92888289539695 129.27593853243164 H 0.0 **** 0.06
19268 H 33.78957038962625 142.64850958337792 129.67854624448898 H 0.0 **** 0.06
19269 H 34.71612783510983 141.4015286835692 128.80804954040252 H 0.0 **** 0.06
19270 H 34.274194870512815 142.9167784732686 127.98649262437252 H 0.0 **** 0.06
19271 C 153.64633908401248 55.53045767519566 136.47592139555837 C 0.0 **** -0.24
19272 H 153.26993730493592 56.06438669518046 135.60408388052608 H 0.0 **** 0.06
19273 H 153.62431345308678 54.45771603133613 136.28225301740298 H 0.0 **** 0.06
19274 H 153.0196976835928 55.75623466563535 137.33884925834948 H 0.0 **** 0.06
19275 H 154.66996375129952 55.84271730503748 136.67905831129553 H 0.0 **** 0.06
19276 C 65.59068995341335 140.28721654592294 112.32585236880107 C 0.0 **** -0.24
19277 H 66.18789169718158 139.89822232141887 111.50092584732693 H 0.0 **** 0.06
19278 H 65.34373536114035 141.33179421065137 112.13438400090445 H 0.0 **** 0.06
19279 H 66.15935553893723 140.21151563162033 113.25254865245586 H 0.0 **** 0.06
19280 H 64.67246034427214 139.70687117409426 112.41498605160143 H 0.0 **** 0.06
19281 C 35.41417893695865 59.41954741827864 66.00569150086466 C 0.0 **** -0.24
19282 H 36.40797544176772 59.33995573902591 66.44777282024486 H 0.0 **** 0.06
19283 H 34.66927395853827 59.48918807217407 66.79971227900404 H 0.0 **** 0.06
19284 H 35.21557282096785 58.537661350265495 65.39709578653958 H 0.0 **** 0.06
19285 H 35.36509709358856 60.311079295420654 65.38141909427011 H 0.0 **** 0.06
19286 C 18.795660587200985 69.10441331076146 28.48080643630894 C 0.0 **** -0.24
19287 H 18.23353886163477 68.96643259485072 27.558028224041436 H 0.0 **** 0.06
19288 H 18.121232640746825 69.02007873051927 29.333684413473918 H 0.0 **** 0.06
19289 H 19.25865369674716 70.09212724570651 28.479464921988324 H 0.0 **** 0.06
19290 H 19.569903113959526 68.34044765497418 28.55273818319884 H 0.0 **** 0.06
19291 C 102.35134371971839 93.46957718745668 58.71482641790578 C 0.0 **** -0.24
19292 H 101.44680687698138 93.99051902323879 58.40047009645808 H 0.0 **** 0.06
19293 H 102.5340808795084 92.6250693068888 58.04926665671691 H 0.0 **** 0.06
19294 H 102.22685418388124 93.10873815045073 59.735070843484294 H 0.0 **** 0.06
19295 H 103.19749815884768 94.15482343831161 58.67243061064458 H 0.0 **** 0.06
19296 C 100.53244286233306 32.8837626262555 76.85190829701322 C 0.0 **** -0.24
19297 H 101.39041577916151 32.574512140861486 76.25618960897457 H 0.0 **** 0.06
19298 H 100.50145275978022 32.3019567292303 77.77292712769022 H 0.0 **** 0.06
19299 H 99.6166043855585 32.71505163310965 76.2848644815138 H 0.0 **** 0.06
19300 H 100.61970717149279 33.942846475982435 77.09363027255506 H 0.0 **** 0.06
19301 C 18.671245964059892 45.63829018712539 136.032160301195 C 0.0 **** -0.24
19302 H 18.03089914629271 44.760607875377616 136.11505103397872 H 0.0 **** 0.06
19303 H 18.715400640412952 45.95815204388208 134.99064891506572 H 0.0 **** 0.06
19304 H 19.673970308390864 45.389797171463954 136.37859683349478 H 0.0 **** 0.06
19305 H 18.263584371665758 46.444344412784915 136.64305703914428 H 0.0 **** 0.06
19306 C 142.18422732645854 37.116171304588335 163.07597527048387 C 0.0 **** -0.24
19307 H 141.83466891397154 38.020549576887475 162.57950372123747 H 0.0 **** 0.06
19308 H 142.64443931372085 36.453846541238306 162.34367343280985 H 0.0 **** 0.06
19309 H 141.34020784246576 36.60982449397399 163.54552104515403 H 0.0 **** 0.06
19310 H 142.91779826943076 37.381133580861984 163.8381201906574 H 0.0 **** 0.06
19311 C 115.074716741734 48.33169821127423 114.3360028953116 C 0.0 **** -0.24
19312 H 115.28911761078606 49.39964888760137 114.30155302869494 H 0.0 **** 0.06
19313 H 114.79607512535571 48.050200672174796 115.35152353608925 H 0.0 **** 0.06
19314 H 115.96186933339612 47.774173756681975 114.0344834667793 H 0.0 **** 0.06
19315 H 114.25459388125918 48.10410006556285 113.65577959742666 H 0.0 **** 0.06
19316 C 144.3447139760761 170.44414160219864 42.31571007281792 C 0.0 **** -0.24
19317 H 143.79884613077405 169.50320081492802 42.26043921544738 H 0.0 **** 0.06
19318 H 144.1449418686519 171.03300625607255 41.420056272031275 H 0.0 **** 0.06
19319 H 145.4131970780239 170.24131283520003 42.38721903553841 H 0.0 **** 0.06
19320 H 144.02118478099075 171.0002724109993 43.19528869620865 H 0.0 **** 0.06
19321 C 171.13955732950217 81.43348322926036 148.50918969336084 C 0.0 **** -0.24
19322 H 172.19768039856478 81.34241510147419 148.75700290144678 H 0.0 **** 0.06
19323 H 170.6902457671365 82.21441720652865 149.12288622695462 H 0.0 **** 0.06
19324 H 170.63861059306177 80.48498512137473 148.70221529968842 H 0.0 **** 0.06
19325 H 171.03355229203547 81.69271101533025 147.45613316526865 H 0.0 **** 0.06
19326 C 35.98109327358806 78.93257223276714 12.497869901761362 C 0.0 **** -0.24
19327 H 36.33835347475679 78.848736735925 11.471330592845703 H 0.0 **** 0.06
19328 H 35.55939383495205 77.9781169979683 12.814396359461682 H 0.0 **** 0.06
19329 H 35.21475849123749 79.70514897372101 12.553523667654503 H 0.0 **** 0.06
19330 H 36.811617321877264 79.19664275660506 13.151116942715106 H 0.0 **** 0.06
19331 C 9.221742673265837 27.413733959333342 109.12121619362631 C 0.0 **** -0.24
19332 H 9.481807593439868 27.090409732102444 108.11326536775823 H 0.0 **** 0.06
19333 H 8.462402563315457 28.19421259721932 109.06825497460682 H 0.0 **** 0.06
19334 H 10.1110702257308 27.80309694433447 109.61751366021986 H 0.0 **** 0.06
19335 H 8.83334999568904 26.565196091095117 109.68475218055687 H 0.0 **** 0.06
19336 C 102.03551669269035 47.21802764017676 135.8841629323486 C 0.0 **** -0.24
19337 H 102.90271370120757 47.06817659673274 136.52794567650284 H 0.0 **** 0.06
19338 H 101.791605001802 46.28330269241019 135.37883080692455 H 0.0 **** 0.06
19339 H 102.26108488181416 47.9838950576916 135.14288009615822 H 0.0 **** 0.06
19340 H 101.18631446430021 47.53731044260792 136.489350743613 H 0.0 **** 0.06
19341 C 107.64252759074685 125.95729373915745 111.116217884148 C 0.0 **** -0.24
19342 H 107.14846240857395 125.05493728027099 111.47803501226392 H 0.0 **** 0.06
19343 H 108.20567767314407 125.72520369393038 110.21221656558424 H 0.0 **** 0.06
19344 H 108.32053408640508 126.33217610393444 111.88278985254453 H 0.0 **** 0.06
19345 H 106.8922304052723 126.71647228689105 110.8925880900095 H 0.0 **** 0.06
19346 C 129.19158283292109 143.23468988613075 40.10064056501521 C 0.0 **** -0.24
19347 H 129.8121224768058 142.43886982308348 39.68661736464121 H 0.0 **** 0.06
19348 H 128.14023399027784 143.00612201266966 39.92053066302903 H 0.0 **** 0.06
19349 H 129.44532370785714 144.17955162291443 39.619178130803945 H 0.0 **** 0.06
19350 H 129.36878188639437 143.31311263123885 41.173275429874664 H 0.0 **** 0.06
19351 C 129.72555024980227 130.98417771642818 86.85845974306346 C 0.0 **** -0.24
19352 H 130.029153296181 131.0377801405453 85.81227658714357 H 0.0 **** 0.06
19353 H 130.14095392604168 130.08335129211747 87.3112011148931 H 0.0 **** 0.06
19354 H 128.63821295572075 130.95458615105946 86.91915651837832 H 0.0 **** 0.06
19355 H 130.0955473455815 131.86175534101147 87.38862749708392 H 0.0 **** 0.06
19356 C 48.15107308935181 159.40329348546865 115.72315867654339 C 0.0 **** -0.24
19357 H 49.01343484075983 159.79887416389218 115.18638467708678 H 0.0 **** 0.06
19358 H 47.37083237490984 159.13557781314282 115.01022393291385 H 0.0 **** 0.06
19359 H 47.77282502845236 160.1607403536313 116.40940412895509 H 0.0 **** 0.06
19360 H 48.44785630842182 158.5187157333444 116.28644732311142 H 0.0 **** 0.06
19361 C 25.741350355217065 23.521420764773495 5.18787572679706 C 0.0 **** -0.24
19362 H 26.18621888997282 23.27136502733498 4.22494151921822 H 0.0 **** 0.06
19363 H 24.65803264479939 23.58752090076655 5.0797658839567035 H 0.0 **** 0.06
19364 H 26.131531738499206 24.479564057254265 5.530352133815931 H 0.0 **** 0.06
19365 H 25.987502586509038 22.747124216382872 5.913359064374788 H 0.0 **** 0.06
19366 C 67.73497137817112 130.70581276782445 171.0446857016228 C 0.0 **** -0.24
19367 H 67.53504972857436 130.97903776595706 172.08145214524276 H 0.0 **** 0.06
19368 H 66.8047160521729 130.40369066930873 170.56280867149258 H 0.0 **** 0.06
19369 H 68.44443869558003 129.8791505005292 171.0181567125046 H 0.0 **** 0.06
19370 H 68.15507400720787 131.5633755141365 170.51942662868368 H 0.0 **** 0.06
19371 C 65.97920246574442 73.49068873430497 67.41288080669614 C 0.0 **** -0.24
19372 H 65.32959542562476 73.59232216052081 66.54395762021909 H 0.0 **** 0.06
19373 H 65.80019432433221 72.52682064617241 67.88943361741204 H 0.0 **** 0.06
19374 H 65.76717728430769 74.29167568345429 68.12050739713843 H 0.0 **** 0.06
19375 H 67.02058844393763 73.55295560374913 67.09552565295046 H 0.0 **** 0.06
19376 C 80.25203521721056 73.16600021287623 159.23838326015755 C 0.0 **** -0.24
19377 H 80.04054431643124 72.11673568901367 159.44472702025382 H 0.0 **** 0.06
19378 H 81.1154722336347 73.48294801623773 159.8221912402017 H 0.0 **** 0.06
19379 H 79.38688100940954 73.77014010382676 159.51023681219976 H 0.0 **** 0.06
19380 H 80.46498783329196 73.29105241141815 158.17679232573693 H 0.0 **** 0.06
19381 C 21.32318145484666 98.99910413149985 93.89174574203514 C 0.0 **** -0.24
19382 H 20.788866298511664 98.22272514468483 94.44049177001367 H 0.0 **** 0.06
19383 H 21.55308565510458 98.64086566386896 92.88731281786306 H 0.0 **** 0.06
19384 H 22.249496874632428 99.23826206316807 94.41326121407855 H 0.0 **** 0.06
19385 H 20.700925735621638 99.89130022092917 93.82771355517184 H 0.0 **** 0.06
19386 C 106.59056968357723 119.80294435249681 171.0818075071626 C 0.0 **** -0.24
19387 H 106.3372268063818 119.44730130464825 170.08304948024332 H 0.0 **** 0.06
19388 H 107.55296276782877 120.31432143170514 171.0513405719255 H 0.0 **** 0.06
19389 H 106.64926029196923 118.95661905191082 171.7655706672487 H 0.0 **** 0.06
19390 H 105.82176402137361 120.49497900554337 171.4259340623663 H 0.0 **** 0.06
19391 C 143.78998006629382 92.30639171018015 11.803182393064674 C 0.0 **** -0.24
19392 H 144.21863165767067 93.26733054149463 12.088327216789082 H 0.0 **** 0.06
19393 H 142.9803016687453 92.4669654307055 11.090826317974432 H 0.0 **** 0.06
19394 H 143.4012435891844 91.80636385438123 12.690386588632066 H 0.0 **** 0.06
19395 H 144.56095548749354 91.68737513537178 11.345296445405893 H 0.0 **** 0.06
19396 C 70.25124462303074 16.851235864454928 170.17584487014352 C 0.0 **** -0.24
19397 H 70.20576173115984 15.798385963217527 170.45609405377377 H 0.0 **** 0.06
19398 H 71.15672681286497 17.033334088329248 169.5973775728539 H 0.0 **** 0.06
19399 H 70.2656192226209 17.465885316419275 171.0762234701209 H 0.0 **** 0.06
19400 H 69.37841272937737 17.105386811387355 169.57609582976139 H 0.0 **** 0.06
19401 C 31.17600564143983 73.48928837833294 119.61847191900856 C 0.0 **** -0.24
19402 H 31.30961585832823 72.54305725035249 120.14115547522337 H 0.0 **** 0.06
19403 H 30.181997242803845 73.52132251463806 119.1731189315291 H 0.0 **** 0.06
19404 H 31.928856406946352 73.58144373578659 118.8344021809325 H 0.0 **** 0.06
19405 H 31.28514164083765 74.3134347758506 120.32418805439161 H 0.0 **** 0.06
19406 C 138.74334622248256 27.952778149857323 125.85592189795818 C 0.0 **** -0.24
19407 H 139.29251984554264 27.045545269084386 125.6061860637752 H 0.0 **** 0.06
19408 H 137.6740983289405 27.741029669763776 125.8572292336938 H 0.0 **** 0.06
19409 H 138.96008090088975 28.72378150685259 125.11764753020893 H 0.0 **** 0.06
19410 H 139.04652735136705 28.30024678025788 126.84393452899965 H 0.0 **** 0.06
19411 C 24.053976553133964 67.84103864300505 14.329566849989853 C 0.0 **** -0.24
19412 H 23.855128155509817 68.18035293026061 13.313120438779443 H 0.0 **** 0.06
19413 H 24.7654200981101 68.51617578810716 14.80517709424521 H 0.0 **** 0.06
19414 H 24.473057686621416 66.83432676623131 14.300801651443635 H 0.0 **** 0.06
19415 H 23.124623759583926 67.83112819047176 14.897468516586741 H 0.0 **** 0.06
19416 C 32.019271300119286 56.84592949909323 54.10590967389537 C 0.0 **** -0.24
19417 H 32.089801358708215 57.19531608434794 53.07560208719478 H 0.0 **** 0.06
19418 H 31.74571269118256 57.679882590380245 54.75373462457782 H 0.0 **** 0.06
19419 H 32.98225017588058 56.443068354610105 54.4186567754174 H 0.0 **** 0.06
19420 H 31.25956086795094 56.06804714761934 54.17416110967888 H 0.0 **** 0.06
19421 C 165.7250165370737 11.759644598615466 79.90668265954272 C 0.0 **** -0.24
19422 H 165.01154323035774 12.319086843053867 79.30090099459757 H 0.0 **** 0.06
19423 H 165.57597898187595 12.002637066472204 80.95911730090329 H 0.0 **** 0.06
19424 H 166.7402339141616 12.027098085185173 79.61189880223769 H 0.0 **** 0.06
19425 H 165.5715148597617 10.690910195749012 79.75500466299079 H 0.0 **** 0.06
19426 C 20.053501190678254 59.55363009851958 77.71385612824886 C 0.0 **** -0.24
19427 H 19.609542311246507 60.21883702348747 76.97255559947484 H 0.0 **** 0.06
19428 H 19.936458697502566 59.98730157211506 78.70734710058792 H 0.0 **** 0.06
19429 H 21.113070141797984 59.42211117816082 77.49596033080417 H 0.0 **** 0.06
19430 H 19.553272778374975 58.5857979130852 77.67814080670678 H 0.0 **** 0.06
19431 C 168.2151189772517 157.22550124854007 64.45500163894258 C 0.0 **** -0.24
19432 H 169.25197398805935 157.3619119259525 64.76381715821856 H 0.0 **** 0.06
19433 H 167.68628571632678 158.1757099981652 64.53080338702352 H 0.0 **** 0.06
19434 H 167.7370934929827 156.4905907608805 65.10215724407556 H 0.0 **** 0.06
19435 H 168.1860626412702 156.87481222553404 63.423505097313466 H 0.0 **** 0.06
19436 C 141.19125353521946 11.215937765178097 121.00903186427715 C 0.0 **** -0.24
19437 H 141.96162317668535 10.56188227077854 121.41720364681586 H 0.0 **** 0.06
19438 H 140.69312714540388 10.716131069035555 120.17786727771352 H 0.0 **** 0.06
19439 H 141.64955530777917 12.139493309237935 120.65541791442757 H 0.0 **** 0.06
19440 H 140.46169078329476 11.445892754753686 121.78468387502318 H 0.0 **** 0.06
19441 C 51.42619091031929 160.63517142184156 81.1381258758783 C 0.0 **** -0.24
19442 H 52.20766858192417 161.31355724964533 80.79541242439069 H 0.0 **** 0.06
19443 H 51.70021268439689 160.22788732451215 82.11162776718703 H 0.0 **** 0.06
19444 H 51.31205325037536 159.82094469824983 80.4220178939633 H 0.0 **** 0.06
19445 H 50.48482912458087 161.17829641495894 81.22344541797227 H 0.0 **** 0.06
19446 C 169.4654854751819 18.032863277309843 40.68436147124572 C 0.0 **** -0.24
19447 H 168.54856294621035 18.473285771823008 40.29269287691068 H 0.0 **** 0.06
19448 H 169.25106124964304 17.5201977506524 41.62222846744373 H 0.0 **** 0.06
19449 H 170.19966938402322 18.818619132682826 40.859098064908665 H 0.0 **** 0.06
19450 H 169.86222710388063 17.319449098042114 39.96208003541403 H 0.0 **** 0.06
19451 C 160.576954352377 105.60639960709193 150.8587367176928 C 0.0 **** -0.24
19452 H 160.51525298430587 106.39038078943733 151.6141396954938 H 0.0 **** 0.06
19453 H 161.60230271353387 105.24176602313878 150.7968071320786 H 0.0 **** 0.06
19454 H 160.27470859206298 106.00941605122077 149.8918735189796 H 0.0 **** 0.06
19455 H 159.91487523292756 104.78578343872604 151.1337030942877 H 0.0 **** 0.06
19456 C 132.11402074892948 3.219234111133197 39.65840508047273 C 0.0 **** -0.24
19457 H 132.58623372066737 3.520932653946346 40.593235053433546 H 0.0 **** 0.06
19458 H 132.29098924381782 3.9821154089730086 38.89957078295646 H 0.0 **** 0.06
19459 H 131.04119914945687 3.1020126153421117 39.81316662805904 H 0.0 **** 0.06
19460 H 132.5395164391914 2.2723347830169445 39.32648753422646 H 0.0 **** 0.06
19461 C 4.877534507988052 94.48921635127073 4.511308678486273 C 0.0 **** -0.24
19462 H 5.505988665922928 94.0313278936332 3.7467442621562554 H 0.0 **** 0.06
19463 H 5.010735913071507 95.57076772772888 4.489349914582107 H 0.0 **** 0.06
19464 H 5.161741024913425 94.1068770770317 5.491338015243485 H 0.0 **** 0.06
19465 H 3.8328100461655055 94.24716876766206 4.314458557189113 H 0.0 **** 0.06
19466 C 104.56417275844044 22.565892221864374 97.80869820249373 C 0.0 **** -0.24
19467 H 103.6710342173391 23.01962958207173 97.38027888471214 H 0.0 **** 0.06
19468 H 104.83963079826842 23.09667158959809 98.72039680155643 H 0.0 **** 0.06
19469 H 105.38241402157871 22.626449291430987 97.09165131392572 H 0.0 **** 0.06
19470 H 104.36360888793135 21.52036770329451 98.04380629354557 H 0.0 **** 0.06
19471 C 14.602538752893537 136.9732831599394 135.01387471595882 C 0.0 **** -0.24
19472 H 14.1024665697758 136.01847669199023 134.85098331076543 H 0.0 **** 0.06
19473 H 15.3323755889638 137.14126066645235 134.22161658405204 H 0.0 **** 0.06
19474 H 15.110627456810732 136.956122421774 135.97836503703613 H 0.0 **** 0.06
19475 H 13.865020848555162 137.7754323328427 135.0061151026441 H 0.0 **** 0.06
19476 C 55.6643294237615 10.3156590142964 83.50922609748429 C 0.0 **** -0.24
19477 H 55.319703519292574 10.74551170621806 82.56832022814764 H 0.0 **** 0.06
19478 H 56.70225905053887 10.602211744404343 83.68077150923737 H 0.0 **** 0.06
19479 H 55.58876690831133 9.229524957151057 83.46067415151445 H 0.0 **** 0.06
19480 H 55.04531081677479 10.686886531928629 84.3260793788667 H 0.0 **** 0.06
19481 C 72.14042125152409 2.9867735309384216 102.71036311727215 C 0.0 **** -0.24
19482 H 72.53277316082352 2.1127023677742613 102.19032199019347 H 0.0 **** 0.06
19483 H 72.93705514183279 3.719386107814131 102.84176881093387 H 0.0 **** 0.06
19484 H 71.75662354278361 2.687611394683074 103.68555771921348 H 0.0 **** 0.06
19485 H 71.33482761579148 3.4266407934031804 102.12267794380321 H 0.0 **** 0.06
19486 C 144.72733265054353 109.42324887918556 26.268196891148136 C 0.0 **** -0.24
19487 H 143.7691462630825 109.90569403012884 26.07745967776983 H 0.0 **** 0.06
19488 H 145.03722525800683 108.86943571165583 25.38117898119914 H 0.0 **** 0.06
19489 H 144.62876695083872 108.73742206190235 27.10947779362123 H 0.0 **** 0.06
19490 H 145.47533189410748 110.1802569015698 26.502756385006506 H 0.0 **** 0.06
19491 C 93.73011617418467 138.69888550771944 169.6885965678387 C 0.0 **** -0.24
19492 H 94.70191583322082 139.01791039490132 170.06583752489422 H 0.0 **** 0.06
19493 H 93.49774091180007 139.24592112256275 168.77497139607237 H 0.0 **** 0.06
19494 H 92.96543525697422 138.90179398507502 170.43942109647924 H 0.0 **** 0.06
19495 H 93.75614717338061 137.6294891665637 169.47620995408482 H 0.0 **** 0.06
19496 C 12.558229960105557 103.75937419135965 40.04731851952198 C 0.0 **** -0.24
19497 H 12.610889051829453 104.10927780604655 39.01592786133318 H 0.0 **** 0.06
19498 H 13.085252871867347 104.46011360064122 40.69523775009259 H 0.0 **** 0.06
19499 H 13.023853073737023 102.77604787278977 40.120712529909724 H 0.0 **** 0.06
19500 H 11.51517225879956 103.69232750166321 40.35497178309754 H 0.0 **** 0.06
19501 C 58.54406891858113 52.012102692397306 65.2465945276495 C 0.0 **** -0.24
19502 H 59.18570589721797 52.62416593064451 65.88075757896713 H 0.0 **** 0.06
19503 H 58.40502200530979 51.03385255569269 65.708195921428 H 0.0 **** 0.06
19504 H 59.010903263055724 51.89057527158218 64.26956231565327 H 0.0 **** 0.06
19505 H 57.57646797895218 52.50046657814376 65.13015429611416 H 0.0 **** 0.06
19506 C 132.1927244074792 13.297768697861663 149.12665290685817 C 0.0 **** -0.24
19507 H 132.36429319875845 12.8371936154048 148.15406002618843 H 0.0 **** 0.06
19508 H 132.69458572893336 12.713881673151015 149.8987936752521 H 0.0 **** 0.06
19509 H 131.12271376527656 13.326054466322503 149.3319802546236 H 0.0 **** 0.06
19510 H 132.5879224830901 14.313001737430781 149.12326062373685 H 0.0 **** 0.06
19511 C 39.6153969927301 142.42213826354973 30.61414837634966 C 0.0 **** -0.24
19512 H 40.59677984934365 142.71502761341412 30.240311890973715 H 0.0 **** 0.06
19513 H 39.066746300678034 141.9036310532048 29.82828461099193 H 0.0 **** 0.06
19514 H 39.06302313443109 143.311823011283 30.91713907802358 H 0.0 **** 0.06
19515 H 39.73747369616444 141.76066759174006 31.4714330395403 H 0.0 **** 0.06
19516 C 169.3302370638647 5.9091991923305045 67.35759335293761 C 0.0 **** -0.24
19517 H 169.3333941725742 4.827272252341658 67.48652080909199 H 0.0 **** 0.06
19518 H 169.4103619215978 6.391584182756986 68.33231430980277 H 0.0 **** 0.06
19519 H 168.40094037903256 6.214954822956827 66.87634667297897 H 0.0 **** 0.06
19520 H 170.1753976852724 6.203271419233829 66.73562613444699 H 0.0 **** 0.06
19521 C 171.13644624250668 138.4678265765168 127.45058667192382 C 0.0 **** -0.24
19522 H 171.581522299197 139.21722665457287 126.7965713869475 H 0.0 **** 0.06
19523 H 170.57721680128367 137.7487473395227 126.8518566215215 H 0.0 **** 0.06
19524 H 170.46277885533385 138.9556459446511 128.15614159003343 H 0.0 **** 0.06
19525 H 171.923728176336 137.9512861706616 127.99924352114556 H 0.0 **** 0.06
19526 C 69.91808749793398 164.87408607026177 111.79841106714127 C 0.0 **** -0.24
19527 H 69.10520160566668 164.15394197332398 111.89851714787295 H 0.0 **** 0.06
19528 H 70.81322517176807 164.3640103548932 111.44251572478916 H 0.0 **** 0.06
19529 H 70.11943702965448 165.3307129071507 112.76725598350805 H 0.0 **** 0.06
19530 H 69.63228201183546 165.64768878481007 111.08497902559017 H 0.0 **** 0.06
19531 C 153.00064761580785 161.97767056826493 12.174642981056081 C 0.0 **** -0.24
19532 H 152.29198228645305 161.15316968328565 12.25249492854418 H 0.0 **** 0.06
19533 H 152.57095476704953 162.8693454398541 12.632040168734832 H 0.0 **** 0.06
19534 H 153.2149625968947 162.17520842135403 11.124350131650864 H 0.0 **** 0.06
19535 H 153.92345207465922 161.7124084127478 12.691465127158033 H 0.0 **** 0.06
19536 C 155.00765392190564 130.7407018069954 144.98433324445116 C 0.0 **** -0.24
19537 H 155.80386842683922 130.0252885125613 144.7782495981876 H 0.0 **** 0.06
19538 H 155.44324083438147 131.67821158700414 145.33240893590556 H 0.0 **** 0.06
19539 H 154.34810587422942 130.33852536932733 145.75425707882968 H 0.0 **** 0.06
19540 H 154.4357491960948 130.92035954434027 144.07406061346842 H 0.0 **** 0.06
19541 C 156.76678060238444 70.76056394030138 104.71003348304208 C 0.0 **** -0.24
19542 H 156.4102205891577 71.10118531114942 105.68182369076928 H 0.0 **** 0.06
19543 H 157.83183853897498 70.5350166135473 104.77189790339659 H 0.0 **** 0.06
19544 H 156.60292039941461 71.54233894579357 103.96842451802115 H 0.0 **** 0.06
19545 H 156.22203997804914 69.86232712180606 104.4182399391945 H 0.0 **** 0.06
19546 C 78.78785965136143 110.48620216273463 137.7460472494414 C 0.0 **** -0.24
19547 H 79.3867138277156 110.87418850921807 138.57033753187653 H 0.0 **** 0.06
19548 H 78.31342045012329 111.3158171632017 137.2205231108925 H 0.0 **** 0.06
19549 H 78.02043855497527 109.81879523935771 138.13832782329376 H 0.0 **** 0.06
19550 H 79.42923118580387 109.9381172791563 137.0566970711895 H 0.0 **** 0.06
19551 C 105.4331543993685 79.31531997333755 51.63976042585898 C 0.0 **** -0.24
19552 H 105.76950629397251 78.50244038998257 52.282925533765194 H 0.0 **** 0.06
19553 H 104.5950821158697 78.97438054001906 51.03232456837803 H 0.0 **** 0.06
19554 H 106.25137420727648 79.62577798137376 50.98871941220963 H 0.0 **** 0.06
19555 H 105.11799170425147 80.15826008567393 52.2536452597724 H 0.0 **** 0.06
19556 C 88.05558876234878 34.32619788762253 124.98206082378621 C 0.0 **** -0.24
19557 H 88.01556972980354 35.208668254556244 125.6206113022358 H 0.0 **** 0.06
19558 H 88.22035079755203 34.63312199159802 123.94914976497688 H 0.0 **** 0.06
19559 H 87.11402160026874 33.78248193200034 125.05473410559233 H 0.0 **** 0.06
19560 H 88.87319663313866 33.68198817619836 125.30524095567392 H 0.0 **** 0.06
19561 C 105.82659603194074 159.65324487671782 56.47604162657633 C 0.0 **** -0.24
19562 H 105.70825060686781 160.34405519948564 55.64056052237255 H 0.0 **** 0.06
19563 H 105.06201952129356 158.87852263744267 56.41746348073356 H 0.0 **** 0.06
19564 H 105.7225718157029 160.19725801421026 57.41455685775672 H 0.0 **** 0.06
19565 H 106.81416312761584 159.19352109563908 56.429722293692464 H 0.0 **** 0.06
19566 C 120.35646325260484 7.7816803516054165 135.35245451998574 C 0.0 **** -0.24
19567 H 121.10376031632194 8.553227324844883 135.53827044020736 H 0.0 **** 0.06
19568 H 119.61491159903608 8.157929476055806 134.6476304779181 H 0.0 **** 0.06
19569 H 119.86720194293679 7.517616280129076 136.2888992136501 H 0.0 **** 0.06
19570 H 120.84179705263517 6.899741589794651 134.93380153377677 H 0.0 **** 0.06
19571 C 82.1096677197953 38.695809291269896 168.80373142793118 C 0.0 **** -0.24
19572 H 81.9628167049445 37.81761035083022 169.43276528717263 H 0.0 **** 0.06
19573 H 81.96273521051815 39.597323049385835 169.4003276284366 H 0.0 **** 0.06
19574 H 81.38967979107854 38.680329219206556 167.985041647567 H 0.0 **** 0.06
19575 H 83.12106710166611 38.687904849500995 168.39910820033705 H 0.0 **** 0.06
19576 C 75.697706397063 61.6674357971973 151.73546652321025 C 0.0 **** -0.24
19577 H 75.19099022403054 62.52844335911561 151.29895432602882 H 0.0 **** 0.06
19578 H 75.1017077076038 60.771679938172554 151.56442806805703 H 0.0 **** 0.06
19579 H 75.82168863455047 61.82413475270317 152.8072538353945 H 0.0 **** 0.06
19580 H 76.67602236263014 61.54891556550285 151.2697949561928 H 0.0 **** 0.06
19581 C 6.509061507807637 130.35500171333314 62.59953223123014 C 0.0 **** -0.24
19582 H 5.667952931181141 131.04573079540944 62.548996548863556 H 0.0 **** 0.06
19583 H 6.332223900229273 129.62303278954022 63.387915484484466 H 0.0 **** 0.06
19584 H 7.42241504101473 130.90962341566075 62.817317234757866 H 0.0 **** 0.06
19585 H 6.615667097147359 129.84082846412537 61.64333227424527 H 0.0 **** 0.06
19586 C 5.911729095714556 121.34733271410192 109.74184138682543 C 0.0 **** -0.24
19587 H 6.215843572750273 121.92749898321756 110.61281076508709 H 0.0 **** 0.06
19588 H 5.380791936059154 121.99239586743488 109.04192322040464 H 0.0 **** 0.06
19589 H 5.256537905843537 120.53574502310244 110.05775134184987 H 0.0 **** 0.06
19590 H 6.795486352774397 120.93253945584803 109.25567692311768 H 0.0 **** 0.06
19591 C 44.891855052143455 15.892836220423504 161.395590836062 C 0.0 **** -0.24
19592 H 45.85494528955584 15.427047840882096 161.60374596450782 H 0.0 **** 0.06
19593 H 45.02238095296278 16.68456928050273 160.65739983407693 H 0.0 **** 0.06
19594 H 44.48769840069983 16.316291547129538 162.31491894100606 H 0.0 **** 0.06
19595 H 44.20276602497728 15.143035477629326 161.00760329870212 H 0.0 **** 0.06
19596 C 1.4941100334776465 37.958519878911545 150.44001202112992 C 0.0 **** -0.24
19597 H 0.8112995594120918 38.073433074826255 151.2821046594864 H 0.0 **** 0.06
19598 H 1.5855944346874367 36.90240095303625 150.18805452541255 H 0.0 **** 0.06
19599 H 2.4736447177434826 38.3546961857262 150.71041054543363 H 0.0 **** 0.06
19600 H 1.1056834309294956 38.50533441552028 149.5808072595442 H 0.0 **** 0.06
19601 C 90.4128243795392 135.86828723439862 57.688318642524166 C 0.0 **** -0.24
19602 H 89.6504978781405 136.23769243938327 57.00230822869737 H 0.0 **** 0.06
19603 H 91.38676092699079 135.90454589865183 57.20089677440569 H 0.0 **** 0.06
19604 H 90.18279901401519 134.83913460729033 57.96578109561925 H 0.0 **** 0.06
19605 H 90.42895577527383 136.490994994733 58.58281403634054 H 0.0 **** 0.06
19606 C 44.197714785627426 87.67989281694108 51.91755765044532 C 0.0 **** -0.24
19607 H 44.5374685832453 88.3856007907531 52.67525071655702 H 0.0 **** 0.06
19608 H 43.91854271111026 86.74022267603634 52.394686749490916 H 0.0 **** 0.06
19609 H 45.00204411844433 87.5004959883083 51.20320876918714 H 0.0 **** 0.06
19610 H 43.33471161370471 88.09372425199652 51.39562253641496 H 0.0 **** 0.06
19611 C 44.87852328759986 42.393391572460246 42.91446849680919 C 0.0 **** -0.24
19612 H 45.83833795058921 41.918149471202526 42.71267916364104 H 0.0 **** 0.06
19613 H 44.50761581211829 42.86352719385235 42.00339147330655 H 0.0 **** 0.06
19614 H 45.00497636390578 43.150478168039 43.68852385511528 H 0.0 **** 0.06
19615 H 44.16492775160259 41.642763976049594 43.25304165714083 H 0.0 **** 0.06
19616 C 78.88790316996992 46.80868997935626 124.39910078337323 C 0.0 **** -0.24
19617 H 78.96997370695378 45.83857658280522 124.88906262337872 H 0.0 **** 0.06
19618 H 77.89271556334013 47.22003180330867 124.5709197141644 H 0.0 **** 0.06
19619 H 79.05190484063101 46.69014748647015 123.32790830636918 H 0.0 **** 0.06
19620 H 79.63711945378026 47.486789872630894 124.80790230528964 H 0.0 **** 0.06
19621 C 18.59531683704717 134.05428909145098 162.57904908389077 C 0.0 **** -0.24
19622 H 19.52481414707116 133.90317442196852 162.03112731749926 H 0.0 **** 0.06
19623 H 17.74880970060125 133.8451029982345 161.92493209576517 H 0.0 **** 0.06
19624 H 18.541080784541755 135.08732061075654 162.92463779253646 H 0.0 **** 0.06
19625 H 18.56657229284869 133.3821929777875 163.43711071916854 H 0.0 **** 0.06
19626 C 13.238336715366415 63.652716131475984 43.32877495873285 C 0.0 **** -0.24
19627 H 12.697305766676777 64.18264797781285 42.54440007711429 H 0.0 **** 0.06
19628 H 13.663668130558221 64.37316776224012 44.02684787509327 H 0.0 **** 0.06
19629 H 14.03795270879823 63.06269099198232 42.8825073900864 H 0.0 **** 0.06
19630 H 12.552334836663078 62.99321696526451 43.86038897149126 H 0.0 **** 0.06
19631 C 119.52546158865727 34.2717452810291 114.61639360488414 C 0.0 **** -0.24
19632 H 119.01045229450801 33.32168185160799 114.47035209632872 H 0.0 **** 0.06
19633 H 118.96092415000456 34.887640638070934 115.31613610212838 H 0.0 **** 0.06
19634 H 119.60794125810034 34.78997814151876 113.65976250632244 H 0.0 **** 0.06
19635 H 120.52293619280198 34.08676075262679 115.01600885073489 H 0.0 **** 0.06
19636 C 50.240074537586906 136.14264485023986 102.11547674589673 C 0.0 **** -0.24
19637 H 50.95473972071699 135.32200385532983 102.17864494127201 H 0.0 **** 0.06
19638 H 50.22272465784556 136.5308216030939 101.09667401785674 H 0.0 **** 0.06
19639 H 50.53529451653753 136.9351537063561 102.80270163287679 H 0.0 **** 0.06
19640 H 49.2476712360189 135.78100973548314 102.38321335933375 H 0.0 **** 0.06
19641 C 119.03362231197016 6.980940271463453 0.726433225336109 C 0.0 **** -0.24
19642 H 118.03448239482086 6.568425886698378 0.5896068123214491 H 0.0 **** 0.06
19643 H 119.68484874344082 6.629401068619671 -0.07319511352500285 H 0.0 **** 0.06
19644 H 119.43135936659559 6.656834343524366 1.6882974448602681 H 0.0 **** 0.06
19645 H 118.98278585368553 8.069242421633476 0.7027424264401247 H 0.0 **** 0.06
19646 C 124.4977945013855 21.26886403372174 88.0244160144503 C 0.0 **** -0.24
19647 H 123.91969085154162 21.68157072976635 88.85142541494422 H 0.0 **** 0.06
19648 H 125.16394487261152 22.035838451853238 87.62920580138595 H 0.0 **** 0.06
19649 H 123.82028565198948 20.9351556104142 87.23899726706102 H 0.0 **** 0.06
19650 H 125.08739171545852 20.42282609394755 88.37976114044258 H 0.0 **** 0.06
19651 C 57.31151860064955 3.874918621408206 172.63759236969238 C 0.0 **** -0.24
19652 H 56.857422059046755 3.8512633291042704 171.64775051378274 H 0.0 **** 0.06
19653 H 58.23631734690272 3.2977675596984 172.62672377747066 H 0.0 **** 0.06
19654 H 56.62269113378957 3.4431715920471007 173.36377031753122 H 0.0 **** 0.06
19655 H 57.53034831803487 4.90640114062694 172.91272240553016 H 0.0 **** 0.06
19656 C 70.82100169674133 45.44835682302835 130.05094973268055 C 0.0 **** -0.24
19657 H 69.79349569307985 45.468137378188544 129.68806225705697 H 0.0 **** 0.06
19658 H 71.45224121022349 44.93301867303768 129.32710551630458 H 0.0 **** 0.06
19659 H 70.85821078121269 44.92455349977433 131.00598781600908 H 0.0 **** 0.06
19660 H 71.17942650457181 46.470075221201455 130.18284895056482 H 0.0 **** 0.06
19661 C 151.65054237726687 105.00094877668369 71.53092631755534 C 0.0 **** -0.24
19662 H 151.21078364144304 105.99823961035796 71.55643018020913 H 0.0 **** 0.06
19663 H 152.6897279993246 105.05374750281413 71.85563037225117 H 0.0 **** 0.06
19664 H 151.6064872195445 104.61135388992216 70.5134229129214 H 0.0 **** 0.06
19665 H 151.09394908322548 104.34240181098755 72.197376594016 H 0.0 **** 0.06
19666 C 100.29956154338183 116.72515530331668 160.0799293311934 C 0.0 **** -0.24
19667 H 100.9243189227627 116.1511150359359 160.7631241287167 H 0.0 **** 0.06
19668 H 100.93338306771992 117.31523018394705 159.41788394083358 H 0.0 **** 0.06
19669 H 99.65151070540506 117.38992573437406 160.65155909398226 H 0.0 **** 0.06
19670 H 99.68821388105684 116.0438827673945 159.48681888950495 H 0.0 **** 0.06
19671 C 17.74916889795159 93.08804217481685 7.499327764967234 C 0.0 **** -0.24
19672 H 17.473037992232918 93.1212760611015 6.444918714616378 H 0.0 **** 0.06
19673 H 17.508128483794167 92.10550675457904 7.906794194160959 H 0.0 **** 0.06
19674 H 17.196644863782808 93.85269547286421 8.043498376553238 H 0.0 **** 0.06
19675 H 18.818897192661353 93.27009820754307 7.600031029788397 H 0.0 **** 0.06
19676 C 91.34807782656674 107.52617613573477 90.29518630565113 C 0.0 **** -0.24
19677 H 90.97494642118883 107.48194725048981 91.31808655907233 H 0.0 **** 0.06
19678 H 92.36475516833576 107.13697047011775 90.26242559586427 H 0.0 **** 0.06
19679 H 91.34339735543017 108.56083120588261 89.95215107871022 H 0.0 **** 0.06
19680 H 90.706516734059 106.9257497831945 89.64913229571188 H 0.0 **** 0.06
19681 C 104.26401384249118 49.454442665733666 169.88184316450946 C 0.0 **** -0.24
19682 H 104.32025824019124 50.02556406284826 168.95506157907295 H 0.0 **** 0.06
19683 H 104.50206785939952 48.40943594343301 169.6783966698962 H 0.0 **** 0.06
19684 H 103.25691992093095 49.52531302394499 170.2924687897755 H 0.0 **** 0.06
19685 H 104.97939208151791 49.85700745072364 170.59967725549325 H 0.0 **** 0.06
19686 C 140.1074814137425 151.72531671418045 5.40526635182556 C 0.0 **** -0.24
19687 H 140.05878469867923 152.55430214802652 6.112250087189921 H 0.0 **** 0.06
19688 H 139.49022425813837 151.95224913106398 4.536578583011135 H 0.0 **** 0.06
19689 H 139.74113929977847 150.81763947410232 5.885319141094783 H 0.0 **** 0.06
19690 H 141.1409075693279 151.57806811269808 5.0896994857851325 H 0.0 **** 0.06
19691 C 147.19763358423458 23.83238932364305 116.76268040892975 C 0.0 **** -0.24
19692 H 147.72929639491798 24.431683877617488 117.50153957547494 H 0.0 **** 0.06
19693 H 147.8904591566913 23.132150720223585 116.2949830315431 H 0.0 **** 0.06
19694 H 146.77277943193332 24.487036391756646 116.00180831234309 H 0.0 **** 0.06
19695 H 146.39656507128808 23.278003955408757 117.2530815981869 H 0.0 **** 0.06
19696 C 172.0020031618557 68.13383859525455 50.144488443853675 C 0.0 **** -0.24
19697 H 171.27438287496523 68.81024196999378 49.69621802090904 H 0.0 **** 0.06
19698 H 172.68584329843287 67.77456965858312 49.374840010607954 H 0.0 **** 0.06
19699 H 171.48407027605083 67.28753863605704 50.59401713774969 H 0.0 **** 0.06
19700 H 172.56583830975137 68.66410002813564 50.91233474345512 H 0.0 **** 0.06
19701 C 43.924960639690966 148.29517051609528 38.79733632736384 C 0.0 **** -0.24
19702 H 43.87298447968557 147.25451145775946 39.11612523193182 H 0.0 **** 0.06
19703 H 44.75780371533601 148.78736754826085 39.301601868148566 H 0.0 **** 0.06
19704 H 42.994059144907794 148.8007608728202 39.05496589929896 H 0.0 **** 0.06
19705 H 44.075645985341694 148.33832394261321 37.71877298345112 H 0.0 **** 0.06
19706 C 92.25901693879172 107.09516697411891 36.9602242379746 C 0.0 **** -0.24
19707 H 91.86161378968308 106.35036948517245 37.65027252800566 H 0.0 **** 0.06
19708 H 92.2393386578297 106.69706803824602 35.94535271508535 H 0.0 **** 0.06
19709 H 93.2859416218692 107.33461789706087 37.23751137302938 H 0.0 **** 0.06
19710 H 91.64942276487938 107.99684177737424 37.00943447842003 H 0.0 **** 0.06
19711 C 25.906037355179222 20.791527119720485 87.70782906394186 C 0.0 **** -0.24
19712 H 26.77435434616882 20.37560033332025 87.19681370542912 H 0.0 **** 0.06
19713 H 25.96514587966385 20.556768710889173 88.77094047702633 H 0.0 **** 0.06
19714 H 24.99714192964393 20.359856772568662 87.28941302089095 H 0.0 **** 0.06
19715 H 25.889482669390958 21.87288229299145 87.57446078907208 H 0.0 **** 0.06
19716 C 164.7716846583938 10.735437771983264 140.6272306021961 C 0.0 **** -0.24
19717 H 164.97141016077654 11.807795319076007 140.63273053977292 H 0.0 **** 0.06
19718 H 163.7024276367633 10.56565197584721 140.49975747524218 H 0.0 **** 0.06
19719 H 165.0992642830036 10.300541006068485 141.57210869448025 H 0.0 **** 0.06
19720 H 165.31559370636282 10.269526450559319 139.80576072293644 H 0.0 **** 0.06
19721 C 150.54378674024767 16.921155962164207 103.10190514660877 C 0.0 **** -0.24
19722 H 150.99355897263547 17.012888172622176 102.11309913166752 H 0.0 **** 0.06
19723 H 150.50345367864023 15.868763096987756 103.38681346293103 H 0.0 **** 0.06
19724 H 149.53389355852005 17.33064726612838 103.08134267205918 H 0.0 **** 0.06
19725 H 151.14389187732223 17.47138830243081 103.82634725603307 H 0.0 **** 0.06
19726 C 155.0118691874885 161.5889682991489 120.05738112699916 C 0.0 **** -0.24
19727 H 154.67867973461156 160.6970979391197 120.58812139800673 H 0.0 **** 0.06
19728 H 154.32442619972022 161.80359795495838 119.23890544206563 H 0.0 **** 0.06
19729 H 156.0119478553219 161.42044783778337 119.65649993555081 H 0.0 **** 0.06
19730 H 155.03360518739396 162.4347568620614 120.74473216045496 H 0.0 **** 0.06
19731 C 41.695672229630816 49.922293455269454 65.62972439144221 C 0.0 **** -0.24
19732 H 42.439515133108 50.17493435312649 66.38459753632947 H 0.0 **** 0.06
19733 H 41.99891146249618 50.334976219658145 64.66756011941015 H 0.0 **** 0.06
19734 H 40.73025608202809 50.34081471293865 65.91660213983403 H 0.0 **** 0.06
19735 H 41.612321993457826 48.83809265094813 65.55032944875131 H 0.0 **** 0.06
19736 C 94.62561257510771 80.30936786831991 62.81717459445562 C 0.0 **** -0.24
19737 H 94.54676296967824 81.02299297346569 61.9973763762718 H 0.0 **** 0.06
19738 H 95.6732707874599 80.19138172224174 63.09600385513721 H 0.0 **** 0.06
19739 H 94.22306975525635 79.34716577031561 62.50106610469112 H 0.0 **** 0.06
19740 H 94.06105524881329 80.67587223890501 63.67397312981859 H 0.0 **** 0.06
19741 C 101.68003018225403 18.175295397870286 24.636185212655846 C 0.0 **** -0.24
19742 H 101.45648269386442 17.43176916915766 25.400170426714055 H 0.0 **** 0.06
19743 H 100.90822012127222 18.944589588005073 24.64126928828216 H 0.0 **** 0.06
19744 H 101.7067397628519 17.69375690400704 23.65811696698455 H 0.0 **** 0.06
19745 H 102.64864063878173 18.629196755489282 24.84360146655206 H 0.0 **** 0.06
19746 C 145.73209069575165 51.476664876206655 68.32948342851302 C 0.0 **** -0.24
19747 H 145.5879511296787 51.548135476537766 69.4072319636125 H 0.0 **** 0.06
19748 H 144.91667324992173 50.90216956311491 67.89040746798332 H 0.0 **** 0.06
19749 H 146.68004241294298 50.97944461010712 68.12215577946665 H 0.0 **** 0.06
19750 H 145.74572695641683 52.47784330740052 67.89820161951161 H 0.0 **** 0.06
19751 C 17.952152634215025 9.81821490422903 19.043826412953408 C 0.0 **** -0.24
19752 H 17.839775722039747 8.745939901288814 18.883801633246243 H 0.0 **** 0.06
19753 H 17.00482040905817 10.235149598639524 19.38442776040015 H 0.0 **** 0.06
19754 H 18.245271178986542 10.296137493962085 18.109082757632763 H 0.0 **** 0.06
19755 H 18.719509484052423 9.993329802279675 19.79832521424958 H 0.0 **** 0.06
19756 C 82.48165528690164 74.38391651946674 28.779825114147627 C 0.0 **** -0.24
19757 H 81.83828604392535 73.91443433890797 28.03621926319198 H 0.0 **** 0.06
19758 H 82.24150351552889 75.44524761694213 28.84929911058066 H 0.0 **** 0.06
19759 H 83.52440937612015 74.26499227240986 28.484392996324743 H 0.0 **** 0.06
19760 H 82.32276630102292 73.91082338395769 29.748027734975125 H 0.0 **** 0.06
19761 C 40.44917040057632 14.90911012073687 154.85011920665437 C 0.0 **** -0.24
19762 H 39.83019109146338 14.037658068256718 155.0619826105654 H 0.0 **** 0.06
19763 H 40.70699954432564 14.922500978859858 153.790702372648 H 0.0 **** 0.06
19764 H 41.36062509566213 14.86104595757729 155.44562516669544 H 0.0 **** 0.06
19765 H 39.8979829983474 15.81568619489127 155.10115799117148 H 0.0 **** 0.06
19766 C 103.84287025132119 85.33648545205321 63.221408137196846 C 0.0 **** -0.24
19767 H 102.86848784025167 84.85849059270497 63.322951327463215 H 0.0 **** 0.06
19768 H 104.46584485865023 85.07896856115897 64.07906944996104 H 0.0 **** 0.06
19769 H 103.71407344400293 86.41805845546989 63.17742618762922 H 0.0 **** 0.06
19770 H 104.32386354130676 84.98982388566661 62.30605277737399 H 0.0 **** 0.06
19771 C 15.491363784317286 89.45176195609719 164.92144978050942 C 0.0 **** -0.24
19772 H 15.406895743633811 89.61166521362915 163.846175254556 H 0.0 **** 0.06
19773 H 14.497112364398504 89.31477979749265 165.34716118413735 H 0.0 **** 0.06
19774 H 15.967329733000213 90.31864237806198 165.3801969277589 H 0.0 **** 0.06
19775 H 16.094496824607063 88.56325890786098 165.10940739831324 H 0.0 **** 0.06
19776 C 46.86619362897541 109.14944525799848 8.755187368012798 C 0.0 **** -0.24
19777 H 46.01753273725464 109.76913546434332 9.045249312630403 H 0.0 **** 0.06
19778 H 46.50985063172698 108.16375562439771 8.454109586470622 H 0.0 **** 0.06
19779 H 47.54708228649004 109.04725176150822 9.600099378532661 H 0.0 **** 0.06
19780 H 47.38993389634446 109.61693582585033 7.922460020322433 H 0.0 **** 0.06
19781 C 24.752895016582784 125.18565083244368 89.63116333970328 C 0.0 **** -0.24
19782 H 25.027723563088855 124.64545214657346 88.72489469816855 H 0.0 **** 0.06
19783 H 25.530139062090477 125.91095663841526 89.87087223309067 H 0.0 **** 0.06
19784 H 24.647869617999334 124.47941331773657 90.45512719855225 H 0.0 **** 0.06
19785 H 23.807597051271998 125.7034738753573 89.47371432001398 H 0.0 **** 0.06
19786 C 105.28108377843782 128.80596089948875 16.30701118066918 C 0.0 **** -0.24
19787 H 105.67091617073717 128.45499308136746 17.263030798684632 H 0.0 **** 0.06
19788 H 106.10948179827301 129.09957144940802 15.662731943700045 H 0.0 **** 0.06
19789 H 104.6275878286956 129.66185748204896 16.474517170674787 H 0.0 **** 0.06
19790 H 104.71512073387561 128.00477837852495 15.830847754226788 H 0.0 **** 0.06
19791 C 111.53447217536905 165.15369599135545 58.1186842921246 C 0.0 **** -0.24
19792 H 111.57576921308177 164.2016229034192 57.589547659667815 H 0.0 **** 0.06
19793 H 111.83119224127594 165.9573569134328 57.444517755919364 H 0.0 **** 0.06
19794 H 112.21314373180522 165.12423275774563 58.97078992281713 H 0.0 **** 0.06
19795 H 110.51784754750418 165.32914564276263 58.46954744437194 H 0.0 **** 0.06
19796 C 32.571357132461685 172.13129613681542 52.405032487948944 C 0.0 **** -0.24
19797 H 32.862301958949615 171.12074770005367 52.11932786312343 H 0.0 **** 0.06
19798 H 33.01269838979505 172.37665621277714 53.37084380677686 H 0.0 **** 0.06
19799 H 31.485213099974317 172.18919288772705 52.47690943437706 H 0.0 **** 0.06
19800 H 32.92381604895499 172.83798627549507 51.653874090004166 H 0.0 **** 0.06
19801 C 144.31947592111118 54.314065101838295 60.80316877874657 C 0.0 **** -0.24
19802 H 144.2035578376147 54.995919341493504 61.64686720655493 H 0.0 **** 0.06
19803 H 144.4236760520666 54.8893188341692 59.88313200498769 H 0.0 **** 0.06
19804 H 143.44233945984067 53.671635657838905 60.7335470142321 H 0.0 **** 0.06
19805 H 145.20820335779084 53.700838037512256 60.95257526717904 H 0.0 **** 0.06
19806 C 13.959760944266009 42.144094422969985 134.40859594616776 C 0.0 **** -0.24
19807 H 13.635416545992939 43.14751360719096 134.13239159491985 H 0.0 **** 0.06
19808 H 13.411997132854538 41.41095967274062 133.8159320878823 H 0.0 **** 0.06
19809 H 13.76191042469651 41.97713648130015 135.46692452182623 H 0.0 **** 0.06
19810 H 15.02735781431727 42.041430036953955 134.2166894460462 H 0.0 **** 0.06
19811 C 17.938757929149737 81.85568019214628 76.19947044051636 C 0.0 **** -0.24
19812 H 18.22809869418512 80.8930058699832 75.77742509987881 H 0.0 **** 0.06
19813 H 17.704712961861816 82.55047866099562 75.39252791339908 H 0.0 **** 0.06
19814 H 18.75978639489624 82.25299987817993 76.79480602847961 H 0.0 **** 0.06
19815 H 17.061263385564963 81.72480010156727 76.8323692486105 H 0.0 **** 0.06
19816 C 78.67286132458419 1.7728089846806938 64.31088973591298 C 0.0 **** -0.24
19817 H 79.35642749685766 1.4505030171708313 65.09590586101224 H 0.0 **** 0.06
19818 H 77.6472417187001 1.553892319278134 64.61027934897558 H 0.0 **** 0.06
19819 H 78.9035706598667 1.239925980049975 63.38865328029094 H 0.0 **** 0.06
19820 H 78.78381573451844 2.844609226938644 64.14945083897436 H 0.0 **** 0.06
19821 C 147.01879652773673 53.22251646552354 43.06757937740372 C 0.0 **** -0.24
19822 H 147.43327074977722 54.141264196759636 43.4810825530127 H 0.0 **** 0.06
19823 H 146.58807817066233 53.42706193611622 42.086897441168446 H 0.0 **** 0.06
19824 H 146.24278176321 52.84199786025613 43.732910802170636 H 0.0 **** 0.06
19825 H 147.80983720718646 52.47921678672503 42.96893652526873 H 0.0 **** 0.06
19826 C 33.59467080820568 165.9471760202831 148.7034358900087 C 0.0 **** -0.24
19827 H 33.258149234845064 166.98062871928272 148.78971422868952 H 0.0 **** 0.06
19828 H 33.76609834520845 165.70737612712657 147.65401662309742 H 0.0 **** 0.06
19829 H 32.83270057388802 165.28225554794102 149.10897662379395 H 0.0 **** 0.06
19830 H 34.52257286313677 165.81940691069585 149.26164466731353 H 0.0 **** 0.06
19831 C 45.849848547774045 32.15839946134682 9.729392902890567 C 0.0 **** -0.24
19832 H 45.128095950018775 32.964662560055814 9.598392179269794 H 0.0 **** 0.06
19833 H 46.26994163731854 32.20722253379813 10.733440838607251 H 0.0 **** 0.06
19834 H 46.64843059291708 32.26347727720679 8.994372099973553 H 0.0 **** 0.06
19835 H 45.35155863952144 31.19979053991628 9.589195706280712 H 0.0 **** 0.06
19836 C 123.5480479753248 123.41257042115137 15.37173286794581 C 0.0 **** -0.24
19837 H 122.61711809884997 123.96982527966776 15.267235153971 H 0.0 **** 0.06
19838 H 123.90200105858824 123.48710570673614 16.400393606777357 H 0.0 **** 0.06
19839 H 124.29770357422643 123.8290190657712 14.698601226966503 H 0.0 **** 0.06
19840 H 123.37560588562178 122.36631721751289 15.120740588402157 H 0.0 **** 0.06
19841 C 85.86412336615126 45.7466014277247 123.32215109775098 C 0.0 **** -0.24
19842 H 86.72002221393024 46.140682400152016 122.7733464321339 H 0.0 **** 0.06
19843 H 86.21359149408676 45.07501637153749 124.10643658737251 H 0.0 **** 0.06
19844 H 85.21433945592617 45.20173116706616 122.63821512144273 H 0.0 **** 0.06
19845 H 85.31050024183469 46.57165130472765 123.77062777301217 H 0.0 **** 0.06
19846 C 103.95534412033592 69.61306885691232 78.65409494063283 C 0.0 **** -0.24
19847 H 103.34316835345766 70.50560238397097 78.52607576592752 H 0.0 **** 0.06
19848 H 104.78501925131832 69.63823481421056 77.9480248161922 H 0.0 **** 0.06
19849 H 103.34787633433154 68.72719811140144 78.47045649257399 H 0.0 **** 0.06
19850 H 104.34376448599954 69.5827727996074 79.67232721617242 H 0.0 **** 0.06
19851 C 36.40279913335367 155.5924810647681 166.54245238522077 C 0.0 **** -0.24
19852 H 37.099443630806945 154.86471444299656 166.12757849497058 H 0.0 **** 0.06
19853 H 35.3806944252314 155.2425985736744 166.3942585246723 H 0.0 **** 0.06
19854 H 36.535805555641275 156.55052753105923 166.03923924584313 H 0.0 **** 0.06
19855 H 36.595252921734925 155.7120837113422 167.60873327539704 H 0.0 **** 0.06
19856 C 108.35579154197 11.286806385477412 126.01779204882976 C 0.0 **** -0.24
19857 H 108.46296652970216 11.251278122077231 127.10198688971693 H 0.0 **** 0.06
19858 H 107.48075071586021 11.882713700920625 125.75786087250276 H 0.0 **** 0.06
19859 H 108.23493193744443 10.27447318479642 125.63218391577442 H 0.0 **** 0.06
19860 H 109.2466083514563 11.738022097727047 125.57942118761821 H 0.0 **** 0.06
19861 C 37.67969927396453 80.61722600806019 69.61397003820713 C 0.0 **** -0.24
19862 H 36.590810077252215 80.61192187612363 69.56189915063474 H 0.0 **** 0.06
19863 H 38.02449937044621 79.69403321845778 70.08042386210657 H 0.0 **** 0.06
19864 H 38.00987913046113 81.46994430113716 70.2060248669141 H 0.0 **** 0.06
19865 H 38.090953734533514 80.6917026726727 68.60702505737171 H 0.0 **** 0.06
19866 C 129.4302213340078 154.3061969097281 99.30770875438583 C 0.0 **** -0.24
19867 H 129.6947252946481 154.919079334785 100.16940880266702 H 0.0 **** 0.06
19868 H 129.63584493651473 153.25904838726436 99.53073140623707 H 0.0 **** 0.06
19869 H 130.0212759079614 154.61808576735498 98.44598951576003 H 0.0 **** 0.06
19870 H 128.3702914743634 154.43034291210506 99.08584697919324 H 0.0 **** 0.06
19871 C 83.59853727686023 96.78100434790343 83.28884927479606 C 0.0 **** -0.24
19872 H 83.52497721902654 97.30345220683793 84.24193861982542 H 0.0 **** 0.06
19873 H 84.647944161227 96.59350742440688 83.05716557839608 H 0.0 **** 0.06
19874 H 83.15634755531192 97.39444833789562 82.50294282668 H 0.0 **** 0.06
19875 H 83.06589408436703 95.83182145163858 83.352757504213 H 0.0 **** 0.06
19876 C 161.30476822447474 2.04711138389996 135.18798095821433 C 0.0 **** -0.24
19877 H 161.70095239923086 2.4465617525202106 136.1220498598326 H 0.0 **** 0.06
19878 H 161.0618310976791 2.869521454731739 134.51545110694664 H 0.0 **** 0.06
19879 H 160.4053372783578 1.4674188937985946 135.39384439707905 H 0.0 **** 0.06
19880 H 162.0529895055391 1.4044168231210392 134.72271669318658 H 0.0 **** 0.06
19881 C 98.2982844085962 66.36565600580559 100.51284112115283 C 0.0 **** -0.24
19882 H 99.13052944725425 66.08013115526737 101.15613416247453 H 0.0 **** 0.06
19883 H 97.36972755838127 66.33613805658565 101.08356178085151 H 0.0 **** 0.06
19884 H 98.23252194412294 65.6716769467104 99.67500549098929 H 0.0 **** 0.06
19885 H 98.46106782490818 67.37576126242715 100.1360943454514 H 0.0 **** 0.06
19886 C 93.67857332527171 86.60677570979323 171.2771646077876 C 0.0 **** -0.24
19887 H 93.63302788871141 85.63222814384329 170.79061568696932 H 0.0 **** 0.06
19888 H 94.69325580888136 86.99978045087124 171.20746569822344 H 0.0 **** 0.06
19889 H 93.40065936268161 86.50124913870121 172.32597877867298 H 0.0 **** 0.06
19890 H 92.98804186484796 87.29149676183482 170.78468255611193 H 0.0 **** 0.06
19891 C 46.35809001580199 86.23950199049243 111.3604606921985 C 0.0 **** -0.24
19892 H 45.28466864970396 86.34123376667785 111.20388363923979 H 0.0 **** 0.06
19893 H 46.85591289726287 86.12390587891561 110.39731526014856 H 0.0 **** 0.06
19894 H 46.55389622848365 85.36343584656251 111.97893399818776 H 0.0 **** 0.06
19895 H 46.738139083687386 87.13014617271118 111.86105817193413 H 0.0 **** 0.06
19896 C 121.80044327609409 74.11123416259575 24.90441732626732 C 0.0 **** -0.24
19897 H 120.97341628645955 73.86938153537581 24.236276718454718 H 0.0 **** 0.06
19898 H 122.44988849021865 73.2415933925579 25.006324339579123 H 0.0 **** 0.06
19899 H 121.40818456530513 74.38970181748158 25.88251755308235 H 0.0 **** 0.06
19900 H 122.36899393596508 74.9441764285927 24.49072599695387 H 0.0 **** 0.06
19901 C 172.09438934234709 123.79966973928572 151.58590933109696 C 0.0 **** -0.24
19902 H 173.03117323623545 123.44953504192551 151.15366428032388 H 0.0 **** 0.06
19903 H 171.71260198251184 124.63467542354141 150.99812781149706 H 0.0 **** 0.06
19904 H 172.26592243554225 124.12503911263349 152.6117959444718 H 0.0 **** 0.06
19905 H 171.36600962370366 122.9879479673495 151.57943062112707 H 0.0 **** 0.06
19906 C 56.346181480391394 47.57537058683755 131.60689659998638 C 0.0 **** -0.24
19907 H 56.21655438650585 46.55216739233106 131.25341782996387 H 0.0 **** 0.06
19908 H 56.47599732713658 48.240342310913434 130.75284587162153 H 0.0 **** 0.06
19909 H 57.22606576534616 47.62942129334948 132.24757540940723 H 0.0 **** 0.06
19910 H 55.46457142120617 47.87832235577136 132.1726855562692 H 0.0 **** 0.06
19911 C 113.5825367075586 31.23914099371757 84.89848581821455 C 0.0 **** -0.24
19912 H 114.6045039392512 31.046116689579094 85.2252637096635 H 0.0 **** 0.06
19913 H 113.27155653664829 30.459649743202675 84.20236087891806 H 0.0 **** 0.06
19914 H 113.537352795821 32.20873133737757 84.403369526979 H 0.0 **** 0.06
19915 H 112.91903723404158 31.241258543426795 85.7627468458944 H 0.0 **** 0.06
19916 C 163.88347618801967 7.928311705818395 114.81996950332007 C 0.0 **** -0.24
19917 H 164.26223521021484 8.313058684251132 113.8731329030987 H 0.0 **** 0.06
19918 H 164.26159147407725 8.541045421746574 115.63753196152857 H 0.0 **** 0.06
19919 H 164.2165050784642 6.89844909814407 114.95200728727482 H 0.0 **** 0.06
19920 H 162.79356858849113 7.95894609244376 114.81438691860498 H 0.0 **** 0.06
19921 C 10.119372353556287 39.633325376353795 142.69642271564896 C 0.0 **** -0.24
19922 H 9.992263567185205 38.67970743888806 143.20757370600757 H 0.0 **** 0.06
19923 H 11.049246371566369 39.619195775525725 142.1274535919884 H 0.0 **** 0.06
19924 H 10.15491101342593 40.43698152153644 143.43157370299713 H 0.0 **** 0.06
19925 H 9.281068462047699 39.797416769464746 142.01908986160288 H 0.0 **** 0.06
19926 C 124.34069405735542 19.092202657997234 54.667986137825366 C 0.0 **** -0.24
19927 H 125.36378759825666 18.74605739129369 54.813265981901054 H 0.0 **** 0.06
19928 H 123.73196100432955 18.274182520441762 54.28482916531213 H 0.0 **** 0.06
19929 H 124.3339933329859 19.916318811304627 53.95386998403518 H 0.0 **** 0.06
19930 H 123.93486304414895 19.433879256767455 55.6198923625344 H 0.0 **** 0.06
19931 C 27.964764022807387 134.33104873660182 44.54473426042307 C 0.0 **** -0.24
19932 H 29.03506847062485 134.532943107938 44.51326658657774 H 0.0 **** 0.06
19933 H 27.549215164897298 134.41491784086014 43.54030590622898 H 0.0 **** 0.06
19934 H 27.47795757846542 135.05288268768766 45.20131818228458 H 0.0 **** 0.06
19935 H 27.795863648554487 133.32340512090636 44.92435142149907 H 0.0 **** 0.06
19936 C 100.64055868906749 77.5816984378854 71.4421488181828 C 0.0 **** -0.24
19937 H 101.2301643553198 76.8648233708669 70.87138226367063 H 0.0 **** 0.06
19938 H 100.25489222100191 77.09961508098468 72.34180112039455 H 0.0 **** 0.06
19939 H 99.80784583147943 77.93415422754714 70.83266508075009 H 0.0 **** 0.06
19940 H 101.26860076164198 78.42704285273567 71.72380670994721 H 0.0 **** 0.06
19941 C 48.02703586971444 76.2849945801632 52.69516296161255 C 0.0 **** -0.24
19942 H 48.70598762203804 76.01432676090808 51.88648092430276 H 0.0 **** 0.06
19943 H 47.84572019878675 77.36038145063246 52.67231695003255 H 0.0 **** 0.06
19944 H 48.47389123294869 76.01162330596378 53.650967655169794 H 0.0 **** 0.06
19945 H 47.08347331449755 75.75381172345091 52.5698327413116 H 0.0 **** 0.06
19946 C 119.63542343481927 67.22101765045551 23.15440046959489 C 0.0 **** -0.24
19947 H 118.98545228852757 66.78645429765324 23.913746491608777 H 0.0 **** 0.06
19948 H 119.1286394240937 68.06388409032367 22.683350212110383 H 0.0 **** 0.06
19949 H 119.86836642876472 66.46852685554039 22.40170177752418 H 0.0 **** 0.06
19950 H 120.55797120070272 67.56672703763373 23.621058622880128 H 0.0 **** 0.06
19951 C 81.09954215983373 160.92157315629166 49.996994426926165 C 0.0 **** -0.24
19952 H 81.42812877312701 160.1935188176367 50.738593981771785 H 0.0 **** 0.06
19953 H 80.01440026595589 160.87996931960055 49.903622200958054 H 0.0 **** 0.06
19954 H 81.55681753232653 160.69153644275832 49.03487566209469 H 0.0 **** 0.06
19955 H 81.39932746156444 161.92098846188009 50.3117022196556 H 0.0 **** 0.06
19956 C 160.58861112666477 64.03514894345182 102.43443099293148 C 0.0 **** -0.24
19957 H 160.974125641106 63.322617395130365 101.70425185366926 H 0.0 **** 0.06
19958 H 160.85119662278458 63.70276300915397 103.43924473701131 H 0.0 **** 0.06
19959 H 159.5036105426846 64.09727480157144 102.34362719425559 H 0.0 **** 0.06
19960 H 161.02503027059498 65.01598468761544 102.24962915773827 H 0.0 **** 0.06
19961 C 157.85866360734389 151.93187030621658 10.909642620421948 C 0.0 **** -0.24
19962 H 157.6099650332959 150.87295714757738 10.842746332349577 H 0.0 **** 0.06
19963 H 158.31234004306765 152.25847331599755 9.974480965716936 H 0.0 **** 0.06
19964 H 158.55988782983468 152.08852126481224 11.728803306115026 H 0.0 **** 0.06
19965 H 156.95061707046813 152.50624734746154 11.09351673762518 H 0.0 **** 0.06
19966 C 44.96021273013787 20.202207413442295 21.31885504398747 C 0.0 **** -0.24
19967 H 44.2707739543921 20.231166071541764 22.16381114453702 H 0.0 **** 0.06
19968 H 44.39540388807296 20.088159521176976 20.39381113984507 H 0.0 **** 0.06
19969 H 45.64282805797012 19.360361904442584 21.436032885165616 H 0.0 **** 0.06
19970 H 45.530674807830934 21.13030140531947 21.285124639816217 H 0.0 **** 0.06
19971 C 88.95246131633846 60.64498954430903 52.55638889081092 C 0.0 **** -0.24
19972 H 88.28613663637731 60.13518970736607 53.252137931715765 H 0.0 **** 0.06
19973 H 88.51364721392041 61.599569106514195 52.266975324695295 H 0.0 **** 0.06
19974 H 89.0951496425196 60.02581138500801 51.67030613199586 H 0.0 **** 0.06
19975 H 89.91489798181324 60.81833225063201 53.03707708113893 H 0.0 **** 0.06
19976 C 52.61513360946492 69.99672939035842 139.207703727324 C 0.0 **** -0.24
19977 H 52.234621197620555 70.11380754212932 140.22203166987472 H 0.0 **** 0.06
19978 H 52.558888034172554 70.95296391037267 138.68646367249136 H 0.0 **** 0.06
19979 H 52.01455120712305 69.25816617324404 138.67710658605023 H 0.0 **** 0.06
19980 H 53.651672077538564 69.66295089002264 139.24456937727226 H 0.0 **** 0.06
19981 C 104.21500486507034 48.32098350734722 166.24830645904493 C 0.0 **** -0.24
19982 H 103.46292694398221 48.21358313078646 165.46657367272638 H 0.0 **** 0.06
19983 H 105.090420952145 47.723851539087775 165.9933883027184 H 0.0 **** 0.06
19984 H 103.80380973252204 47.977321789571704 167.1979471262727 H 0.0 **** 0.06
19985 H 104.501463804688 49.369127460101126 166.33510921209884 H 0.0 **** 0.06
19986 C 83.81136174210769 109.25213276058372 132.97106404183518 C 0.0 **** -0.24
19987 H 84.18826349266641 108.96994710686982 133.95392491755348 H 0.0 **** 0.06
19988 H 82.93998793214831 108.64334080656323 132.72829409695743 H 0.0 **** 0.06
19989 H 84.58818304085139 109.09110399698369 132.2243669415265 H 0.0 **** 0.06
19990 H 83.52825180788454 110.304960282178 132.97984902362674 H 0.0 **** 0.06
19991 C 80.2403698221562 145.25513612755447 63.27358436692134 C 0.0 **** -0.24
19992 H 79.21417277106512 144.94869296032863 63.070138083319065 H 0.0 **** 0.06
19993 H 80.42410021771593 145.21447482618402 64.34781293707813 H 0.0 **** 0.06
19994 H 80.39352949465774 146.27302114775375 62.91685709144116 H 0.0 **** 0.06
19995 H 80.92863299913265 144.5820971251889 62.76172256726551 H 0.0 **** 0.06
19996 C 88.09697429081614 20.66282888491898 144.16259012229517 C 0.0 **** -0.24
19997 H 87.7282214307839 21.432735181672086 144.84022630971776 H 0.0 **** 0.06
19998 H 88.44197990700896 21.12801084825395 143.23873782143232 H 0.0 **** 0.06
19999 H 87.29280104196476 19.96169261908784 143.9387251720277 H 0.0 **** 0.06
20000 H 88.92333410067069 20.130741023540537 144.63237211195207 H 0.0 **** 0.06
20001 C 53.27277755868785 125.49579763401567 102.23704886563289 C 0.0 **** -0.24
20002 H 53.89077146487483 124.80846568686377 101.65890310106056 H 0.0 **** 0.06
20003 H 52.22671381553671 125.2045090503847 102.14905025128556 H 0.0 **** 0.06
20004 H 53.401479278356376 126.50840442949311 101.85402073958906 H 0.0 **** 0.06
20005 H 53.5740601074087 125.46232497790785 103.2839693914834 H 0.0 **** 0.06
20006 C 123.98568523183613 162.46396699655696 67.05105913278648 C 0.0 **** -0.24
20007 H 123.80723285835143 163.44079961162583 67.50152111963436 H 0.0 **** 0.06
20008 H 123.73639960276986 161.68168332935477 67.76853257890353 H 0.0 **** 0.06
20009 H 125.0365753613356 162.38031124764285 66.7711075616444 H 0.0 **** 0.06
20010 H 123.36305095242932 162.35434946053385 66.16275189211807 H 0.0 **** 0.06
20011 C 53.58624823863789 75.656409158457 26.8028938389821 C 0.0 **** -0.24
20012 H 54.34054456275271 75.95294377019526 27.531219620198954 H 0.0 **** 0.06
20013 H 53.20331076281144 74.66877189346512 27.05844556977371 H 0.0 **** 0.06
20014 H 54.03233180605889 75.6285727731336 25.808933698470895 H 0.0 **** 0.06
20015 H 52.768736413944566 76.37658531868315 26.813658206644874 H 0.0 **** 0.06
20016 C 67.42161731508597 92.95457834866784 30.781374721343354 C 0.0 **** -0.24
20017 H 67.14452575215691 93.20056053054782 29.75537702699762 H 0.0 **** 0.06
20018 H 67.17711582474132 93.7928662672212 31.4342419281636 H 0.0 **** 0.06
20019 H 68.491675703844 92.75433740154313 30.830300955176085 H 0.0 **** 0.06
20020 H 66.87167479451212 92.06972352267252 31.10290755815643 H 0.0 **** 0.06
20021 C 154.174750973544 162.35788733604977 115.97596347213812 C 0.0 **** -0.24
20022 H 153.96024640223314 162.99105548949802 116.83658478773467 H 0.0 **** 0.06
20023 H 154.92855520664403 162.83716811340082 115.35128811567438 H 0.0 **** 0.06
20024 H 153.26290214050834 162.21012960881484 115.39796907379053 H 0.0 **** 0.06
20025 H 154.54712528635844 161.39194518799036 116.31956261252571 H 0.0 **** 0.06
20026 C 29.31873662606506 156.11974322164173 99.57778214997236 C 0.0 **** -0.24
20027 H 30.32659171235403 155.93559352522732 99.20526744008495 H 0.0 **** 0.06
20028 H 28.748184275295472 155.1913286781606 99.55683864342328 H 0.0 **** 0.06
20029 H 28.829860499055485 156.86261846890494 98.94729290167467 H 0.0 **** 0.06
20030 H 29.372552746634653 156.49133731238643 100.60114564651829 H 0.0 **** 0.06
20031 C 2.951472503745009 67.31410290079972 113.25381632757492 C 0.0 **** -0.24
20032 H 4.040516134488257 67.28491114536408 113.21851764350109 H 0.0 **** 0.06
20033 H 2.5880017474689225 68.10301231186699 112.59509169315581 H 0.0 **** 0.06
20034 H 2.626067761751898 67.5130230417063 114.27479708628334 H 0.0 **** 0.06
20035 H 2.55286579182075 66.35447850327701 112.92524992746095 H 0.0 **** 0.06
20036 C 97.10043897719987 75.31701605799071 11.468512866922367 C 0.0 **** -0.24
20037 H 97.62233282444922 74.49822150973228 11.961832672695152 H 0.0 **** 0.06
20038 H 97.48283087332172 76.26809287570721 11.840177409247815 H 0.0 **** 0.06
20039 H 96.03249714076648 75.24757403315199 11.679062783839612 H 0.0 **** 0.06
20040 H 97.26290887212721 75.25491801063157 10.39277333847798 H 0.0 **** 0.06
20041 C 90.99306959894889 79.23911513770398 138.1135693033636 C 0.0 **** -0.24
20042 H 91.9126226627848 78.75561993574583 138.44504595226573 H 0.0 **** 0.06
20043 H 90.84917049655151 79.05342453484101 137.04936855988217 H 0.0 **** 0.06
20044 H 91.06389865324769 80.31243548928119 138.2888429272983 H 0.0 **** 0.06
20045 H 90.14897616338544 78.83529252941646 138.67145882819165 H 0.0 **** 0.06
20046 C 22.787573677951315 58.1901769066647 167.52148451987625 C 0.0 **** -0.24
20047 H 23.803042852912 57.854002612937364 167.30658815571616 H 0.0 **** 0.06
20048 H 22.099338149047014 57.746880185246226 166.80199369198402 H 0.0 **** 0.06
20049 H 22.742494273065006 59.276299602108935 167.44750819535398 H 0.0 **** 0.06
20050 H 22.509244472296984 57.88232048724005 168.52888981842534 H 0.0 **** 0.06
20051 C 83.65844834266427 89.72187358568173 71.40055299900328 C 0.0 **** -0.24
20052 H 83.37548846050555 90.49922791953401 72.11006700173684 H 0.0 **** 0.06
20053 H 83.87962614580591 88.80027528168874 71.94014744619324 H 0.0 **** 0.06
20054 H 84.54205928288134 90.03962892654368 70.84714588689569 H 0.0 **** 0.06
20055 H 82.83721670668132 89.54825976716204 70.70612950403871 H 0.0 **** 0.06
20056 C 139.81149267919244 79.28652692743114 84.54262860954577 C 0.0 **** -0.24
20057 H 140.53479779059603 80.102607412903 84.54758564759904 H 0.0 **** 0.06
20058 H 139.91853436715178 78.70155607576996 85.45657192736745 H 0.0 **** 0.06
20059 H 139.99201313457962 78.64680516100822 83.67921527298458 H 0.0 **** 0.06
20060 H 138.80238182509947 79.69476043945023 84.4884726961023 H 0.0 **** 0.06
20061 C 85.91289440003699 90.38092735250342 32.309259212476434 C 0.0 **** -0.24
20062 H 86.53197899495152 90.91213311487877 31.58646125922519 H 0.0 **** 0.06
20063 H 85.94869140541286 89.31156645427279 32.10193815661182 H 0.0 **** 0.06
20064 H 84.8830028293629 90.73118491659699 32.23159833184354 H 0.0 **** 0.06
20065 H 86.28612937246122 90.56935524227646 33.31578679047868 H 0.0 **** 0.06
20066 C 36.46428777267117 104.63580342547175 14.718959605131005 C 0.0 **** -0.24
20067 H 37.374854138106755 105.19453744750547 14.504715942460564 H 0.0 **** 0.06
20068 H 35.95865159949366 105.08045290664211 15.576415783909397 H 0.0 **** 0.06
20069 H 36.71783601586492 103.59924720125366 14.943019174821359 H 0.0 **** 0.06
20070 H 35.804636585732254 104.66839344348216 13.851153509011624 H 0.0 **** 0.06
20071 C 39.76250362079426 15.123273865120254 87.34966142426384 C 0.0 **** -0.24
20072 H 38.85134560438556 15.714272920134881 87.44351437607082 H 0.0 **** 0.06
20073 H 40.591956882242414 15.659652774600232 87.81128265074403 H 0.0 **** 0.06
20074 H 39.97946931233433 14.956015669938807 86.2949521031972 H 0.0 **** 0.06
20075 H 39.626193594235616 14.164025565936953 87.84927074065678 H 0.0 **** 0.06
20076 C 25.404501064423542 9.137548908934093 41.447531623964665 C 0.0 **** -0.24
20077 H 25.062492158208393 8.175449848944709 41.82865297607131 H 0.0 **** 0.06
20078 H 24.86909984476516 9.940084473157611 41.95563142613908 H 0.0 **** 0.06
20079 H 25.212874456268658 9.192854103317785 40.37682545037946 H 0.0 **** 0.06
20080 H 26.47432095192937 9.24122741358417 41.63102926495196 H 0.0 **** 0.06
20081 C 43.604491156714474 169.40631490125088 38.5486508066287 C 0.0 **** -0.24
20082 H 42.81425754661862 169.3386477497209 39.2960484052949 H 0.0 **** 0.06
20083 H 44.003034887169534 170.42092558409405 38.53236417602204 H 0.0 **** 0.06
20084 H 43.19976717698461 169.15952991976354 37.56711993177342 H 0.0 **** 0.06
20085 H 44.402421266933345 168.7067413028235 38.79966979523999 H 0.0 **** 0.06
20086 C 129.87848331726042 166.9283962198691 80.0175834326314 C 0.0 **** -0.24
20087 H 130.07735365060006 166.09043876064192 79.3499974439756 H 0.0 **** 0.06
20088 H 129.8116593148377 166.56751738887752 81.04397234967793 H 0.0 **** 0.06
20089 H 128.93723495048152 167.40129497049708 79.73660037132794 H 0.0 **** 0.06
20090 H 130.68803522294297 167.65526114794523 79.93989611605315 H 0.0 **** 0.06
20091 C 37.6089440846538 80.90723102577627 65.93187229564603 C 0.0 **** -0.24
20092 H 36.97958284589696 80.07474076972156 65.61838932908745 H 0.0 **** 0.06
20093 H 38.49097450234609 80.52213267772319 66.44357122073563 H 0.0 **** 0.06
20094 H 37.048051385398125 81.55205556201018 66.60779748327792 H 0.0 **** 0.06
20095 H 37.917297862249 81.47848405078534 65.05608800549561 H 0.0 **** 0.06
20096 C 129.20860990068857 136.86740572694512 85.17030358496791 C 0.0 **** -0.24
20097 H 129.90791816422907 137.57883303601156 84.73100263721328 H 0.0 **** 0.06
20098 H 128.84869374280802 137.25393365933422 86.1237256833797 H 0.0 **** 0.06
20099 H 129.71208955762177 135.91430518058704 85.32932164311157 H 0.0 **** 0.06
20100 H 128.36510329918892 136.72437016050395 84.49411673550411 H 0.0 **** 0.06
20101 C 25.967083332082517 84.71155133122535 144.47454358755866 C 0.0 **** -0.24
20102 H 26.856058285870397 84.10434805599195 144.30166814045683 H 0.0 **** 0.06
20103 H 25.078679857691043 84.1392830762002 144.20542367745 H 0.0 **** 0.06
20104 H 26.01876409993777 85.61263242154467 143.863766099628 H 0.0 **** 0.06
20105 H 25.91643264149244 84.98818613864475 145.5279105188102 H 0.0 **** 0.06
20106 C 164.40239076260167 149.1579874938508 148.71927268866642 C 0.0 **** -0.24
20107 H 164.7787383196661 148.151894486237 148.53514623249237 H 0.0 **** 0.06
20108 H 164.56527803379646 149.42030058344403 149.7649393579601 H 0.0 **** 0.06
20109 H 163.3362373208784 149.19289400050104 148.49804763513288 H 0.0 **** 0.06
20110 H 164.9292346820797 149.86610832830914 148.08015256241174 H 0.0 **** 0.06
20111 C 49.92651298478722 152.96978738525175 75.16193458296448 C 0.0 **** -0.24
20112 H 50.87018647113979 152.91062442334413 75.70465669702611 H 0.0 **** 0.06
20113 H 49.76459924245842 153.99530601076913 74.82742341535432 H 0.0 **** 0.06
20114 H 49.110694911447865 152.6695082106797 75.82013781711842 H 0.0 **** 0.06
20115 H 49.961434121212164 152.3058512468782 74.29846571286453 H 0.0 **** 0.06
20116 C 19.402959614826884 94.51187641486891 100.48681927126708 C 0.0 **** -0.24
20117 H 20.14074347359739 95.17354601670826 100.93914157045643 H 0.0 **** 0.06
20118 H 18.452328782622224 95.03668595470819 100.39463391798859 H 0.0 **** 0.06
20119 H 19.272949876018586 93.62991960592078 101.11393635591165 H 0.0 **** 0.06
20120 H 19.747022099704274 94.20637972363627 99.49795375769256 H 0.0 **** 0.06
20121 C 16.797766437752806 145.19052594146905 123.67228545285528 C 0.0 **** -0.24
20122 H 16.212410229236667 145.59931840961497 122.8483042462758 H 0.0 **** 0.06
20123 H 17.762882728409636 145.69604116237485 123.71764092095651 H 0.0 **** 0.06
20124 H 16.95345727154509 144.12327921678337 123.5138620172726 H 0.0 **** 0.06
20125 H 16.26239749107772 145.34519113140595 124.60945191356481 H 0.0 **** 0.06
20126 C 126.84448452677441 132.90943574170382 2.1966112357577288 C 0.0 **** -0.24
20127 H 127.01387882476291 132.7408320111656 1.1326936801530323 H 0.0 **** 0.06
20128 H 126.24757522308784 133.81219045439627 2.3302204617601916 H 0.0 **** 0.06
20129 H 127.80243353480586 133.0277187359015 2.7022652628406263 H 0.0 **** 0.06
20130 H 126.3131771433089 132.05687593289588 2.6182288211498346 H 0.0 **** 0.06
20131 C 75.77052420832413 72.1667588909895 20.510060546910857 C 0.0 **** -0.24
20132 H 76.73685674240907 72.66878484030175 20.450886235787458 H 0.0 **** 0.06
20133 H 75.25385634929381 72.4774861313881 21.417773096130567 H 0.0 **** 0.06
20134 H 75.92266801007035 71.08759600635588 20.52857855164074 H 0.0 **** 0.06
20135 H 75.16993159698767 72.4335163737788 19.640105857243462 H 0.0 **** 0.06
20136 C 89.22617687036173 23.681985427489906 58.472815187460725 C 0.0 **** -0.24
20137 H 88.95671198420932 22.766594686689018 57.94519726227165 H 0.0 **** 0.06
20138 H 90.12158618584355 24.110886791278944 58.022814114067415 H 0.0 **** 0.06
20139 H 89.41941756428037 23.452388632622387 59.52088653160058 H 0.0 **** 0.06
20140 H 88.40568851426646 24.396621968115966 58.40281035179396 H 0.0 **** 0.06
20141 C 34.33927213402319 45.30423858263126 54.78750398743699 C 0.0 **** -0.24
20142 H 34.12589948977467 44.64772973999126 53.94481578957563 H 0.0 **** 0.06
20143 H 33.76167505980095 44.98190081195452 55.654614823915566 H 0.0 **** 0.06
20144 H 34.06597079453144 46.32718335959498 54.52872117221466 H 0.0 **** 0.06
20145 H 35.40222795927326 45.261146416922585 55.02237231249978 H 0.0 **** 0.06
20146 C 147.89507702988993 38.61316075458694 114.03124164723539 C 0.0 **** -0.24
20147 H 147.52044588378985 39.62661942359259 113.88848588416238 H 0.0 **** 0.06
20148 H 147.0736379030964 37.90331544412754 113.92611017860003 H 0.0 **** 0.06
20149 H 148.32942474430183 38.52301976249112 115.02678614331478 H 0.0 **** 0.06
20150 H 148.6577161348999 38.399432076157325 113.28182530402637 H 0.0 **** 0.06
20151 C 10.506834418106905 92.56739474696153 119.93150305059243 C 0.0 **** -0.24
20152 H 11.58406171428291 92.73257693260302 119.94604188504249 H 0.0 **** 0.06
20153 H 10.006731746242792 93.46923425451124 119.57703156770364 H 0.0 **** 0.06
20154 H 10.161522451110983 92.33148950846268 120.93789389816158 H 0.0 **** 0.06
20155 H 10.276060507918487 91.73775128255517 119.26372143025856 H 0.0 **** 0.06
20156 C 102.67973089479054 128.00001264567751 137.4481824400485 C 0.0 **** -0.24
20157 H 102.47227331998431 126.98907113015017 137.79825068699512 H 0.0 **** 0.06
20158 H 102.25816042793664 128.7201169398582 138.14878382770985 H 0.0 **** 0.06
20159 H 102.23202413857086 128.14303507872887 136.46450594818066 H 0.0 **** 0.06
20160 H 103.758661888946 128.14606177812877 137.38094556627811 H 0.0 **** 0.06
20161 C 105.50837242523014 26.11258213803262 25.068482800635834 C 0.0 **** -0.24
20162 H 105.70509774816867 26.86692677484635 25.83107740744517 H 0.0 **** 0.06
20163 H 105.59555294606315 26.56486196443859 24.08033062895894 H 0.0 **** 0.06
20164 H 104.50160101456274 25.71730940824176 25.20052051237723 H 0.0 **** 0.06
20165 H 106.23305825640813 25.30338437486077 25.1634335029484 H 0.0 **** 0.06
20166 C 8.433954873573612 72.08217781348634 163.16736831576435 C 0.0 **** -0.24
20167 H 7.549136495676976 71.46694262693396 162.99975170624734 H 0.0 **** 0.06
20168 H 8.346495056484514 72.59002129737752 164.12763075326376 H 0.0 **** 0.06
20169 H 8.517456088078575 72.82158788015934 162.36998037674613 H 0.0 **** 0.06
20170 H 9.321348888934097 71.44921193728885 163.16942902652193 H 0.0 **** 0.06
20171 C 129.71139006797011 9.147045088146804 65.59182417635505 C 0.0 **** -0.24
20172 H 128.88110340224753 8.535120081136874 65.23695086103754 H 0.0 **** 0.06
20173 H 130.63920898098866 8.579833827206109 65.5136727120442 H 0.0 **** 0.06
20174 H 129.5396108804173 9.423907792217321 66.63205402723193 H 0.0 **** 0.06
20175 H 129.78394104974677 10.04859306599198 64.9830074546075 H 0.0 **** 0.06
20176 C 70.18885455389706 58.884642052735515 54.47196476943856 C 0.0 **** -0.24
20177 H 69.18658767157235 59.037932277515296 54.86990866113709 H 0.0 **** 0.06
20178 H 70.41571053900444 59.667814974017205 53.74750444196218 H 0.0 **** 0.06
20179 H 70.24054177181067 57.912064695525075 53.983350525920486 H 0.0 **** 0.06
20180 H 70.91222420962202 58.92141462081426 55.28589491163714 H 0.0 **** 0.06
20181 C 123.25968116189625 53.952196338085244 79.4845704573242 C 0.0 **** -0.24
20182 H 122.27574846458248 53.63467615770351 79.13969430408613 H 0.0 **** 0.06
20183 H 123.34693580847062 53.76578803892809 80.55498007923183 H 0.0 **** 0.06
20184 H 123.38603505315166 55.01683062739295 79.28919723838014 H 0.0 **** 0.06
20185 H 124.02809181865501 53.39152984997135 78.95325387685617 H 0.0 **** 0.06
20186 C 27.475231077977973 1.7408909984739864 131.4215019365923 C 0.0 **** -0.24
20187 H 27.16071276717026 2.6420738816726725 131.94619878194288 H 0.0 **** 0.06
20188 H 28.161005766782964 1.1740814178448318 132.05268115998746 H 0.0 **** 0.06
20189 H 27.97724704690654 2.0165176624198864 130.49470796729162 H 0.0 **** 0.06
20190 H 26.60201217194085 1.1291902731865378 131.1934708725409 H 0.0 **** 0.06
20191 C 68.94583033802695 128.0837089664439 92.31295276756973 C 0.0 **** -0.24
20192 H 69.28282980521267 127.08517491166282 92.59139178671947 H 0.0 **** 0.06
20193 H 69.64542478983591 128.82391801903105 92.70059220393142 H 0.0 **** 0.06
20194 H 67.95634997199127 128.26349802582519 92.73447703926587 H 0.0 **** 0.06
20195 H 68.89752579329064 128.1612414969826 91.2272407730206 H 0.0 **** 0.06
20196 C 58.120933275247964 127.91117129338579 139.66158105799843 C 0.0 **** -0.24
20197 H 58.52469684150253 128.61785185696044 138.93776084595015 H 0.0 **** 0.06
20198 H 58.728040366136824 127.00534954517596 139.6630484983923 H 0.0 **** 0.06
20199 H 57.09486367544706 127.66103528641875 139.39200483841552 H 0.0 **** 0.06
20200 H 58.13631193558203 128.35991406097958 140.6554289562851 H 0.0 **** 0.06
20201 C 17.658187266540253 109.43933036635377 66.98845392344454 C 0.0 **** -0.24
20202 H 18.44040124318866 109.46577116147301 66.23097500317031 H 0.0 **** 0.06
20203 H 16.93730571578849 108.65967117657019 66.73890719366194 H 0.0 **** 0.06
20204 H 17.152238671038624 110.40494330998595 67.02231964280615 H 0.0 **** 0.06
20205 H 18.1010860140629 109.22687550426738 67.96183043556701 H 0.0 **** 0.06
20206 C 168.03628662888264 24.915144720063125 130.12400440518863 C 0.0 **** -0.24
20207 H 167.67898778069681 25.867777692884175 130.51308934975836 H 0.0 **** 0.06
20208 H 167.7751171719521 24.117340920439716 130.82060963697572 H 0.0 **** 0.06
20209 H 169.1190869539053 24.95401289416634 130.00499219155765 H 0.0 **** 0.06
20210 H 167.5719799332873 24.720122947247205 129.15782173187148 H 0.0 **** 0.06
20211 C 101.54234796625451 17.118557738073093 93.12461292840783 C 0.0 **** -0.24
20212 H 102.11252254841986 17.487875243130816 92.27231972438531 H 0.0 **** 0.06
20213 H 102.15077435866039 16.413091919735365 93.69118023283653 H 0.0 **** 0.06
20214 H 100.64167736080924 16.61715276678899 92.7689828849891 H 0.0 **** 0.06
20215 H 101.26368974183981 17.95554443517844 93.76558256420765 H 0.0 **** 0.06
20216 C 132.13227206325928 80.03366256582643 54.91187911650769 C 0.0 **** -0.24
20217 H 132.2937781392568 79.61392081229393 55.90469673754045 H 0.0 **** 0.06
20218 H 131.71592412676762 81.03765966080726 55.006375016071516 H 0.0 **** 0.06
20219 H 131.43762630585724 79.40180586297137 54.35956803743595 H 0.0 **** 0.06
20220 H 133.0818429415213 80.08286802760466 54.37977843943938 H 0.0 **** 0.06
20221 C 94.89763288845262 140.13874607577992 80.30109210501035 C 0.0 **** -0.24
20222 H 95.08279382197341 140.98834784068646 80.9583473480445 H 0.0 **** 0.06
20223 H 94.6346399694632 139.26683595912726 80.90055075742461 H 0.0 **** 0.06
20224 H 95.79652919058009 139.9242234856696 79.72365928336333 H 0.0 **** 0.06
20225 H 94.0773937151751 140.37571362057417 79.62411334431317 H 0.0 **** 0.06
20226 C 92.10329417299931 101.64167244269214 124.32011160189904 C 0.0 **** -0.24
20227 H 92.59245834731732 101.4121416820837 125.26683132255286 H 0.0 **** 0.06
20228 H 91.81322941605185 102.691827076196 124.30685111204761 H 0.0 **** 0.06
20229 H 91.2171596424605 101.01710086950735 124.2090120221691 H 0.0 **** 0.06
20230 H 92.79205913822915 101.44386264834873 123.49946048114458 H 0.0 **** 0.06
20231 C 95.17682365540654 101.60660466908905 170.86741752441725 C 0.0 **** -0.24
20232 H 95.89492384010725 101.10054245970494 171.5123642969419 H 0.0 **** 0.06
20233 H 95.27894622182814 101.23340338883486 169.84799023703425 H 0.0 **** 0.06
20234 H 95.36980200029765 102.67968357962152 170.88225730612038 H 0.0 **** 0.06
20235 H 94.1665247761812 101.41342311405879 171.22663920725512 H 0.0 **** 0.06
20236 C 150.4693281533531 87.15292337887234 124.41623460055064 C 0.0 **** -0.24
20237 H 149.6780103787994 87.83178038744376 124.09765566471441 H 0.0 **** 0.06
20238 H 151.1834235892167 87.69293193687679 125.03758847505694 H 0.0 **** 0.06
20239 H 150.97894441872904 86.75378040094239 123.53913521249444 H 0.0 **** 0.06
20240 H 150.0359144614709 86.33280425064413 124.98860892815526 H 0.0 **** 0.06
20241 C 87.30945037648749 121.73114744915631 121.93370761691043 C 0.0 **** -0.24
20242 H 87.61496445133058 121.94351184102595 120.9095720411706 H 0.0 **** 0.06
20243 H 86.26720040535339 122.01952920326062 122.06956467821473 H 0.0 **** 0.06
20244 H 87.93655232252117 122.29407183493436 122.62440975623824 H 0.0 **** 0.06
20245 H 87.41988057781934 120.66391504112642 122.13045972710171 H 0.0 **** 0.06
20246 C 142.1147122975139 23.63029831698352 34.083565500541695 C 0.0 **** -0.24
20247 H 141.20193227922096 23.167648004657323 33.71004512171814 H 0.0 **** 0.06
20248 H 142.95496004831296 23.333127768455036 33.4560461243359 H 0.0 **** 0.06
20249 H 142.29336466467907 23.307153104629748 35.10860728459946 H 0.0 **** 0.06
20250 H 142.0088337709136 24.7148460464607 34.058363422502936 H 0.0 **** 0.06
20251 C 94.60984165633693 59.56382294018823 37.482703225037085 C 0.0 **** -0.24
20252 H 94.81652492880511 60.63342652310817 37.44896333946224 H 0.0 **** 0.06
20253 H 95.30894465857742 59.07994669208591 38.16486886283667 H 0.0 **** 0.06
20254 H 94.72381488120115 59.140689947105045 36.48488823867399 H 0.0 **** 0.06
20255 H 93.59029243865595 59.401404357362196 37.833054185884976 H 0.0 **** 0.06
20256 C 153.29355426205404 164.07927355176963 88.14788969982489 C 0.0 **** -0.24
20257 H 154.23347859047632 164.36170150920617 88.62257264994845 H 0.0 **** 0.06
20258 H 153.1362857683454 164.69437716576078 87.26131687272954 H 0.0 **** 0.06
20259 H 152.4727562753214 164.23274214978684 88.84755905245737 H 0.0 **** 0.06
20260 H 153.33375212627882 163.02859888720755 87.85881861219121 H 0.0 **** 0.06
20261 C 36.94701257415335 85.53151355723679 90.50796990194483 C 0.0 **** -0.24
20262 H 37.35793300282617 86.49476272799967 90.80951029422806 H 0.0 **** 0.06
20263 H 37.444312749961114 85.1932312222018 89.59776122193199 H 0.0 **** 0.06
20264 H 35.87845603874618 85.63513032720044 90.32082379363605 H 0.0 **** 0.06
20265 H 37.10848940318823 84.80296110604746 91.30186140418394 H 0.0 **** 0.06
20266 C 159.1543630502717 32.7293198899975 8.615039082453961 C 0.0 **** -0.24
20267 H 160.173581247676 33.039114237575575 8.383013377842872 H 0.0 **** 0.06
20268 H 158.92350210380968 31.809674093567793 8.078242107600374 H 0.0 **** 0.06
20269 H 158.4594539117836 33.512998907719776 8.310824169564967 H 0.0 **** 0.06
20270 H 159.0615803494384 32.557848746070704 9.68800843661694 H 0.0 **** 0.06
20271 C 10.028767482705383 44.24393777237779 164.25561787456255 C 0.0 **** -0.24
20272 H 10.808254357306026 43.52555045052527 164.51127796021052 H 0.0 **** 0.06
20273 H 9.81070873480109 44.17859196805155 163.1899188187946 H 0.0 **** 0.06
20274 H 10.37166196137781 45.2506732887811 164.49605535893676 H 0.0 **** 0.06
20275 H 9.127624584002618 44.02052736674089 164.8260698285273 H 0.0 **** 0.06
20276 C 115.22805070556637 166.53419512890656 91.04031993937228 C 0.0 **** -0.24
20277 H 115.87841859716133 165.68497517231543 91.25069166868732 H 0.0 **** 0.06
20278 H 115.83271403427415 167.43261103682903 90.9186594056795 H 0.0 **** 0.06
20279 H 114.5341418183545 166.67289512778845 91.86929940077954 H 0.0 **** 0.06
20280 H 114.66811548918332 166.3444951198685 90.1249393483585 H 0.0 **** 0.06
20281 C 98.76651944076258 18.078875845463244 55.60333266143785 C 0.0 **** -0.24
20282 H 99.65092508487592 18.147567050354752 54.96899490216937 H 0.0 **** 0.06
20283 H 98.80808242206595 17.1589831843244 56.186558342474086 H 0.0 **** 0.06
20284 H 97.87286024197482 18.073788858358398 54.979933494766144 H 0.0 **** 0.06
20285 H 98.73519897725663 18.93511769259581 56.276834036747786 H 0.0 **** 0.06
20286 C 84.7749950558491 158.45075888548556 82.79344110942723 C 0.0 **** -0.24
20287 H 85.41420844721819 157.74597053108377 83.32495479045868 H 0.0 **** 0.06
20288 H 84.86421143520363 159.43748461852914 83.24829378988287 H 0.0 **** 0.06
20289 H 83.73840036191285 158.1160186800808 82.85063087445994 H 0.0 **** 0.06
20290 H 85.08234677918148 158.50240477846194 81.74888483593624 H 0.0 **** 0.06
20291 C 55.083847722905546 12.970052358325404 124.27270622062326 C 0.0 **** -0.24
20292 H 55.32465932033489 12.007763835412277 123.8201680706726 H 0.0 **** 0.06
20293 H 54.70381280869458 13.646666797684311 123.50640824530166 H 0.0 **** 0.06
20294 H 55.98180950908369 13.394825852142084 124.7216297108252 H 0.0 **** 0.06
20295 H 54.32407050184656 12.829038452425628 125.04211304832265 H 0.0 **** 0.06
20296 C 105.23895793553723 131.95174985410353 104.51204291832863 C 0.0 **** -0.24
20297 H 104.55832204792097 131.52055812915268 103.7777359810737 H 0.0 **** 0.06
20298 H 106.26423597103258 131.86314110769624 104.15293204081638 H 0.0 **** 0.06
20299 H 105.13651626351427 131.4217773974943 105.45794884824096 H 0.0 **** 0.06
20300 H 104.99534496167476 133.00413460233167 104.65727804334696 H 0.0 **** 0.06
20301 C 51.75860652692643 67.05906339910233 33.34655834379626 C 0.0 **** -0.24
20302 H 51.64923559573647 66.65122690253233 32.341344140489156 H 0.0 **** 0.06
20303 H 51.65726177715524 68.14361680327004 33.310790593737096 H 0.0 **** 0.06
20304 H 52.74126083664318 66.79739900292172 33.73932092223836 H 0.0 **** 0.06
20305 H 50.98634039313346 66.64261017702057 33.992795064520664 H 0.0 **** 0.06
20306 C 132.27137593413352 107.63503217542453 43.38987020334508 C 0.0 **** -0.24
20307 H 132.05472280035767 107.9332032249188 42.364645058720555 H 0.0 **** 0.06
20308 H 132.00183259734547 108.44493251666037 44.0683965747358 H 0.0 **** 0.06
20309 H 133.33384297340746 107.41622688057925 43.48742616727287 H 0.0 **** 0.06
20310 H 131.6929333113989 106.7452549568348 43.63886784187844 H 0.0 **** 0.06
20311 C 81.19231157597447 114.92498380245738 143.99337800923263 C 0.0 **** -0.24
20312 H 81.54349186525448 115.53424592105759 143.16085038381357 H 0.0 **** 0.06
20313 H 80.15938455219585 115.18661473615114 144.2254991751972 H 0.0 **** 0.06
20314 H 81.81878881432065 115.10728282243161 144.86697834348342 H 0.0 **** 0.06
20315 H 81.24800501847605 113.87055534815923 143.72072421297918 H 0.0 **** 0.06
20316 C 48.51504736658114 168.02766344673026 130.44346644601006 C 0.0 **** -0.24
20317 H 47.96680903973265 167.81977012982097 131.36299965637164 H 0.0 **** 0.06
20318 H 49.58633212211362 167.98253136088866 130.6406421680503 H 0.0 **** 0.06
20319 H 48.25291022032388 169.02218094903512 130.08262127693695 H 0.0 **** 0.06
20320 H 48.25206576289088 167.28633650934955 129.68889820328258 H 0.0 **** 0.06
20321 C 106.36752682987765 20.288278341689313 40.97081140840197 C 0.0 **** -0.24
20322 H 105.64379970712565 20.6985229835663 40.26643255138163 H 0.0 **** 0.06
20323 H 105.86855897004273 19.582972804648463 41.63526182353439 H 0.0 **** 0.06
20324 H 106.80125474007815 21.09757976119797 41.55888837635456 H 0.0 **** 0.06
20325 H 107.1578064407733 19.775148200472138 40.42245222677286 H 0.0 **** 0.06
20326 C 31.63173191361203 166.17713380377688 55.509054205995426 C 0.0 **** -0.24
20327 H 30.980317032878375 165.33046437627965 55.29007533085115 H 0.0 **** 0.06
20328 H 31.83574573758591 166.21013860739117 56.58016777628153 H 0.0 **** 0.06
20329 H 31.140887739740123 167.10112515626676 55.204285198866984 H 0.0 **** 0.06
20330 H 32.56857145567389 166.06525437953448 54.96358941234067 H 0.0 **** 0.06
20331 C 74.18683736567053 150.51110492868276 142.79306343827412 C 0.0 **** -0.24
20332 H 74.78292560760744 149.68996930260633 143.19014309378522 H 0.0 **** 0.06
20333 H 73.869821478846 151.1583827952208 143.61035864655727 H 0.0 **** 0.06
20334 H 73.3094042660706 150.11045354298085 142.2855717596725 H 0.0 **** 0.06
20335 H 74.78486937453636 151.08494726991321 142.08551142333096 H 0.0 **** 0.06
20336 C 80.1172951903571 84.87190728591548 35.64546823380006 C 0.0 **** -0.24
20337 H 79.96690027831792 84.26032929462345 34.756176437590966 H 0.0 **** 0.06
20338 H 79.56896598447486 84.43890525591569 36.48192654182934 H 0.0 **** 0.06
20339 H 79.75481021281321 85.88157191354244 35.456224674603504 H 0.0 **** 0.06
20340 H 81.1803936590387 84.90683440544525 35.885986339566315 H 0.0 **** 0.06
20341 C 44.86494767250731 60.23942650961956 170.08731538837196 C 0.0 **** -0.24
20342 H 44.97466589969487 59.189350865105666 170.35554326850166 H 0.0 **** 0.06
20343 H 45.74808170373571 60.791498994984295 170.409652871481 H 0.0 **** 0.06
20344 H 43.98060313327838 60.64884908826946 170.57675497086188 H 0.0 **** 0.06
20345 H 44.75501079370436 60.328165353875306 169.0063447619657 H 0.0 **** 0.06
20346 C 64.39674651314583 59.687839790040144 115.4736099147222 C 0.0 **** -0.24
20347 H 64.79582315374269 59.20216608103735 114.58300053088425 H 0.0 **** 0.06
20348 H 63.6804792490439 59.02423154704256 115.9589793783669 H 0.0 **** 0.06
20349 H 63.898190058093775 60.61530813416442 115.18815908455008 H 0.0 **** 0.06
20350 H 65.211586368447 59.91057395523926 116.16221987490798 H 0.0 **** 0.06
20351 C 74.96314625608773 152.77254340840204 71.81717718085 C 0.0 **** -0.24
20352 H 74.42527945736111 151.82625671619962 71.87507353867744 H 0.0 **** 0.06
20353 H 75.14860784983765 153.02083380889542 70.77155865840928 H 0.0 **** 0.06
20354 H 75.91258580584793 152.68328069454935 72.34370149480819 H 0.0 **** 0.06
20355 H 74.3650078819966 153.55884572115562 72.27700902642206 H 0.0 **** 0.06
20356 C 9.85477323752383 69.13806990563933 51.0997283999024 C 0.0 **** -0.24
20357 H 9.187862446297771 69.92621819097047 50.74930654015246 H 0.0 **** 0.06
20358 H 10.026111071012025 68.42312814000866 50.2946098864665 H 0.0 **** 0.06
20359 H 9.398135671957846 68.62694483085497 51.94758421977238 H 0.0 **** 0.06
20360 H 10.804830918184479 69.5755854800775 51.40696238156873 H 0.0 **** 0.06
20361 C 34.150961309185405 107.60839687906702 135.4915060515386 C 0.0 **** -0.24
20362 H 34.276502749633465 106.52508689491776 135.48206960526167 H 0.0 **** 0.06
20363 H 35.06730618600828 108.07622627434375 135.85213317568198 H 0.0 **** 0.06
20364 H 33.32393036775082 107.87178265946602 136.1506463474327 H 0.0 **** 0.06
20365 H 33.9367418384485 107.95726342722219 134.4815925310956 H 0.0 **** 0.06
20366 C 66.91325870567857 33.82814845822985 75.27837486221478 C 0.0 **** -0.24
20367 H 66.83383767279673 34.91476410277693 75.3068514945362 H 0.0 **** 0.06
20368 H 67.40059620310109 33.47579076405381 76.18800414453807 H 0.0 **** 0.06
20369 H 67.50281043361645 33.52975158544149 74.41143469469523 H 0.0 **** 0.06
20370 H 65.91684733219014 33.39302486926684 75.2077916097436 H 0.0 **** 0.06
20371 C 37.3404227875517 9.611382356306052 154.08319351038742 C 0.0 **** -0.24
20372 H 36.87743430890377 10.153027520001757 153.25880686001148 H 0.0 **** 0.06
20373 H 38.20357144147478 9.056987822214978 153.714985304703 H 0.0 **** 0.06
20374 H 36.617419557564006 8.916160467324232 154.51074240914707 H 0.0 **** 0.06
20375 H 37.66127785124682 10.31836259017362 154.84849617727693 H 0.0 **** 0.06
20376 C 108.8828960381947 52.302416317992154 86.05304709157485 C 0.0 **** -0.24
20377 H 109.23989898030982 51.41607039992306 86.57665569863326 H 0.0 **** 0.06
20378 H 109.05802547177097 52.1872288141453 84.98299067745421 H 0.0 **** 0.06
20379 H 109.41889714926475 53.179749675130836 86.41593990102831 H 0.0 **** 0.06
20380 H 107.81570387357516 52.42768400265102 86.23561508147941 H 0.0 **** 0.06
20381 C 80.48303037148281 141.67431763553918 96.65949695270544 C 0.0 **** -0.24
20382 H 79.93175468757818 140.91767205563394 97.21803592144857 H 0.0 **** 0.06
20383 H 81.55304749453998 141.4814072212485 96.7459270161184 H 0.0 **** 0.06
20384 H 80.25748010507492 142.66086683520717 97.06362925957382 H 0.0 **** 0.06
20385 H 80.1901228351142 141.63520460484727 95.6097429030992 H 0.0 **** 0.06
20386 C 160.1663727500628 162.38150242885843 107.16036099944517 C 0.0 **** -0.24
20387 H 159.65529103267363 161.71447855701308 106.4654697542824 H 0.0 **** 0.06
20388 H 161.14297313085873 161.967066156307 107.41059780298829 H 0.0 **** 0.06
20389 H 159.57091032307068 162.4850210691062 108.06772398527491 H 0.0 **** 0.06
20390 H 160.29454402930975 163.3596492984659 106.69597427410952 H 0.0 **** 0.06
20391 C 4.521636231320571 150.87413390407443 38.32821963039902 C 0.0 **** -0.24
20392 H 5.196375554580982 150.02733180468772 38.20339883789006 H 0.0 **** 0.06
20393 H 4.305926618030867 151.01269433887313 39.38777876600085 H 0.0 **** 0.06
20394 H 3.5934116473471818 150.6808130916677 37.790672083263075 H 0.0 **** 0.06
20395 H 4.991009037434026 151.7737140778906 37.93122613117174 H 0.0 **** 0.06
20396 C 168.27305188982854 122.86176633394916 4.5665347737655395 C 0.0 **** -0.24
20397 H 168.60390858447562 123.1926801054251 5.551256624689962 H 0.0 **** 0.06
20398 H 168.1880554164315 121.77485374676812 4.559475897208912 H 0.0 **** 0.06
20399 H 168.99868026982057 123.17529272707378 3.8156300817556428 H 0.0 **** 0.06
20400 H 167.30302553577695 123.30444288484563 4.341455867614407 H 0.0 **** 0.06
20401 C 120.16084896949408 71.2386544902082 54.40418094984085 C 0.0 **** -0.24
20402 H 120.76358942263704 70.37285646728736 54.68056464661839 H 0.0 **** 0.06
20403 H 119.10325910110828 70.98282151541395 54.47686778367341 H 0.0 **** 0.06
20404 H 120.39396728470828 71.53128353133314 53.38075862257904 H 0.0 **** 0.06
20405 H 120.38288011645781 72.06544264569646 55.078628643192786 H 0.0 **** 0.06
20406 C 55.60110053085499 90.34170134615196 32.837509261743094 C 0.0 **** -0.24
20407 H 55.561753360678594 89.5835937225529 32.05600380034434 H 0.0 **** 0.06
20408 H 54.64224763313868 90.37969666805023 33.3554143573424 H 0.0 **** 0.06
20409 H 55.81213202509811 91.31407612433316 32.39219679713824 H 0.0 **** 0.06
20410 H 56.38904560563306 90.08920909892433 33.548733892093935 H 0.0 **** 0.06
20411 C 43.323667809010175 120.03279216141851 162.9446998046024 C 0.0 **** -0.24
20412 H 43.36353123682551 120.89292861244013 162.27709187292427 H 0.0 **** 0.06
20413 H 44.21762627896811 119.42400895707868 162.80698826906982 H 0.0 **** 0.06
20414 H 42.4395111404516 119.43745643856107 162.71734866562795 H 0.0 **** 0.06
20415 H 43.2743780004177 120.37641784946413 163.9782258577577 H 0.0 **** 0.06
20416 C 122.01981978832464 88.88560220341974 102.17957519142908 C 0.0 **** -0.24
20417 H 121.93997034025702 89.66380145762471 102.9376847694241 H 0.0 **** 0.06
20418 H 122.96558801459463 88.3556102386149 102.30229939220422 H 0.0 **** 0.06
20419 H 121.98348373968 89.33776945930167 101.18904068084265 H 0.0 **** 0.06
20420 H 121.19355534840216 88.18433201630573 102.28970849091411 H 0.0 **** 0.06
20421 C 30.057997589607112 140.81639316728874 16.413315540043158 C 0.0 **** -0.24
20422 H 30.3024654011476 140.40305305744613 15.4339010838371 H 0.0 **** 0.06
20423 H 30.976938553047063 141.00926170350812 16.965937824113126 H 0.0 **** 0.06
20424 H 29.44389859786702 140.10406544874522 16.964274553260395 H 0.0 **** 0.06
20425 H 29.507380177150424 141.74889019725515 16.285655973029463 H 0.0 **** 0.06
20426 C 55.86549147203186 143.25426393766776 171.446089625968 C 0.0 **** -0.24
20427 H 55.61830397067661 142.2062761865743 171.61295236354096 H 0.0 **** 0.06
20428 H 55.39133236052987 143.86610343444028 172.21428412318735 H 0.0 **** 0.06
20429 H 55.50447631020893 143.5606954826029 170.46338977489413 H 0.0 **** 0.06
20430 H 56.94660362692855 143.3851284692945 171.49227584458413 H 0.0 **** 0.06
20431 C 125.11692205618675 28.6100519618779 88.89854133340731 C 0.0 **** -0.24
20432 H 125.72654866424318 27.91762169085399 89.48091060092582 H 0.0 **** 0.06
20433 H 125.10928475530773 28.296414496395244 87.85457275038516 H 0.0 **** 0.06
20434 H 125.53579172275778 29.613400698010793 88.97449985058927 H 0.0 **** 0.06
20435 H 124.09824100306602 28.610491274541346 89.2856174090067 H 0.0 **** 0.06
20436 C 123.20231945821911 61.077669111656476 110.34073278187435 C 0.0 **** -0.24
20437 H 122.41299695851444 61.829865144136704 110.30429979457611 H 0.0 **** 0.06
20438 H 124.17046096911909 61.57212957030664 110.42613232570969 H 0.0 **** 0.06
20439 H 123.17780603448074 60.481816387951056 109.42790594679465 H 0.0 **** 0.06
20440 H 123.04693671564141 60.429243740275794 111.20311548791827 H 0.0 **** 0.06
20441 C 30.072869517960527 61.2966726154377 102.5973819257276 C 0.0 **** -0.24
20442 H 28.98437443512782 61.327814778828625 102.64743999965489 H 0.0 **** 0.06
20443 H 30.48164197883972 61.25506522774583 103.60703933753294 H 0.0 **** 0.06
20444 H 30.437831836674206 62.19129416796338 102.09301205748275 H 0.0 **** 0.06
20445 H 30.385403322747806 60.41300842733264 102.0411415063989 H 0.0 **** 0.06
20446 C 75.2976899806238 115.4322387846149 160.78243593289426 C 0.0 **** -0.24
20447 H 76.06279537185374 114.88838931970429 161.33715091034236 H 0.0 **** 0.06
20448 H 75.43359436880519 115.26089854754795 159.71393850899247 H 0.0 **** 0.06
20449 H 75.38507471246457 116.4981697318022 160.99350539459712 H 0.0 **** 0.06
20450 H 74.3111750272674 115.08148442980607 161.08446539589502 H 0.0 **** 0.06
20451 C 100.353601315287 165.89322137325846 108.1380361084615 C 0.0 **** -0.24
20452 H 101.0483093577206 165.10390999323238 107.84992765471333 H 0.0 **** 0.06
20453 H 100.15712270280082 165.83050856613778 109.20749690384423 H 0.0 **** 0.06
20454 H 99.4198777505454 165.77291929672498 107.58816529099286 H 0.0 **** 0.06
20455 H 100.7897309623869 166.8640463418856 107.90403615449517 H 0.0 **** 0.06
20456 C 72.250890834968 36.337343321212785 3.0888688785657052 C 0.0 **** -0.24
20457 H 73.09118735914677 36.29773561358658 2.3960138034235285 H 0.0 **** 0.06
20458 H 72.17550607149512 37.3394396839696 3.5128302502497064 H 0.0 **** 0.06
20459 H 72.40521339179423 35.615083826741014 3.889883190589387 H 0.0 **** 0.06
20460 H 71.33009114057305 36.09825903544959 2.5562594259793343 H 0.0 **** 0.06
20461 C 44.95636158425128 79.29211860474491 54.419009860787284 C 0.0 **** -0.24
20462 H 44.74708706764733 80.26143023863841 54.87206430845343 H 0.0 **** 0.06
20463 H 44.03683593104313 78.7063739394282 54.374098658682726 H 0.0 **** 0.06
20464 H 45.695603142695575 78.76226328747087 55.020183264137174 H 0.0 **** 0.06
20465 H 45.344516383804034 79.43725330353553 53.41099649386375 H 0.0 **** 0.06
20466 C 55.381945167218475 3.5829066676711037 133.72137453098517 C 0.0 **** -0.24
20467 H 54.4963441739705 2.9479940473210746 133.68728577592475 H 0.0 **** 0.06
20468 H 56.261544421710084 2.99292423109528 133.46382247570298 H 0.0 **** 0.06
20469 H 55.49811751108422 3.9896506425528457 134.7258059634503 H 0.0 **** 0.06
20470 H 55.27028109152056 4.400315342596997 133.0090513070525 H 0.0 **** 0.06
20471 C 89.34316473461426 60.83680403259103 143.69313612664027 C 0.0 **** -0.24
20472 H 89.6231837714002 60.13717842545101 144.48050105237954 H 0.0 **** 0.06
20473 H 88.92024268365546 60.286069772558065 142.8525899262174 H 0.0 **** 0.06
20474 H 90.2275017900333 61.38307888849961 143.36199567962748 H 0.0 **** 0.06
20475 H 88.6041300405625 61.539450464975715 144.07704089833823 H 0.0 **** 0.06
20476 C 111.67760279656918 11.020615105823765 98.61567075882891 C 0.0 **** -0.24
20477 H 111.5157203423079 10.606140031694764 97.62090312076288 H 0.0 **** 0.06
20478 H 112.69732057627397 10.80608070412174 98.93659574370889 H 0.0 **** 0.06
20479 H 110.9735123554349 10.569571980180285 99.31543926031202 H 0.0 **** 0.06
20480 H 111.5229784625956 12.09956135950938 98.5897960839792 H 0.0 **** 0.06
20481 C 135.19394288148055 157.64310753913188 0.46836248427698024 C 0.0 **** -0.24
20482 H 136.28385691021455 157.64452057922637 0.4675923713649581 H 0.0 **** 0.06
20483 H 134.82946699373298 158.65894442593216 0.6256042424157613 H 0.0 **** 0.06
20484 H 134.83202889387022 156.9992839468947 1.2697766237636472 H 0.0 **** 0.06
20485 H 134.83130363060454 157.2707843830688 -0.48952394654403975 H 0.0 **** 0.06
20486 C 16.299168587553666 34.39442098140506 153.5783666982211 C 0.0 **** -0.24
20487 H 16.32101491020979 33.5599952620731 154.2796224670492 H 0.0 **** 0.06
20488 H 17.150377352452246 34.32107901669704 152.90142077551474 H 0.0 **** 0.06
20489 H 16.351977279541835 35.33374759250944 154.12930767535914 H 0.0 **** 0.06
20490 H 15.37298647681532 34.36187926846853 153.00450615585936 H 0.0 **** 0.06
20491 C 153.2529881015224 25.394219163383497 0.35018811340168554 C 0.0 **** -0.24
20492 H 152.91330812814493 24.420875578146877 -0.0028089769604591197 H 0.0 **** 0.06
20493 H 152.40130644934627 26.070221125544492 0.42669888441768933 H 0.0 **** 0.06
20494 H 153.97993774771265 25.801281201912303 -0.3520681587899901 H 0.0 **** 0.06
20495 H 153.71750501974202 25.28212573889317 1.3304662958354427 H 0.0 **** 0.06
20496 C 44.815786707896834 59.80934859155488 11.50920285929135 C 0.0 **** -0.24
20497 H 44.410049698247306 60.2501401641355 12.42031069026936 H 0.0 **** 0.06
20498 H 44.07769416078624 59.13613756260153 11.07262583158547 H 0.0 **** 0.06
20499 H 45.72094299663242 59.25146393602799 11.74730990447756 H 0.0 **** 0.06
20500 H 45.052807891424436 60.59996077437654 10.798040086689412 H 0.0 **** 0.06
20501 C 170.7518753411315 110.51151543552243 160.40574319291014 C 0.0 **** -0.24
20502 H 170.7367403232098 110.18465316709029 161.4452782632746 H 0.0 **** 0.06
20503 H 170.19780712426052 111.44600112145628 160.31169465903196 H 0.0 **** 0.06
20504 H 170.29032769704168 109.74948188282593 159.77820052036807 H 0.0 **** 0.06
20505 H 171.7834436174532 110.66785798155905 160.08906337696965 H 0.0 **** 0.06
20506 C 113.37273637311597 21.526388758155264 93.1036624297443 C 0.0 **** -0.24
20507 H 113.95718035724255 20.666773516611926 92.77355473589719 H 0.0 **** 0.06
20508 H 112.59141113686104 21.19243868755217 93.78584817429771 H 0.0 **** 0.06
20509 H 112.91864278672432 22.009832815206522 92.23852021510291 H 0.0 **** 0.06
20510 H 114.02465746167556 22.234550726902143 93.61466114959754 H 0.0 **** 0.06
20511 C 66.52015749527271 133.87983386738725 16.695268306391178 C 0.0 **** -0.24
20512 H 65.55522706377286 134.23865556674681 16.338922407293516 H 0.0 **** 0.06
20513 H 67.31866880488923 134.36239958616503 16.130329156028587 H 0.0 **** 0.06
20514 H 66.57877231976003 132.8001596436032 16.5590110255851 H 0.0 **** 0.06
20515 H 66.62775900412707 134.1187256366927 17.754072758538513 H 0.0 **** 0.06
20516 C 122.06594893671854 39.36928855155236 167.91241862828764 C 0.0 **** -0.24
20517 H 121.8626100656625 40.34361832760277 167.46844006226053 H 0.0 **** 0.06
20518 H 123.07544937376173 39.05361107089749 167.64937533116156 H 0.0 **** 0.06
20519 H 121.34720207686047 38.641396461948034 167.5340586361779 H 0.0 **** 0.06
20520 H 121.97669497658094 39.43836124595927 168.99703280257816 H 0.0 **** 0.06
20521 C 130.52383955563883 127.4216964289655 27.30786739072107 C 0.0 **** -0.24
20522 H 129.62301733864416 126.84297675594036 27.511317752456534 H 0.0 **** 0.06
20523 H 130.34001472384398 128.0987065771453 26.473474867818965 H 0.0 **** 0.06
20524 H 131.33990388089447 126.74430164511986 27.053408061966906 H 0.0 **** 0.06
20525 H 130.79327631062213 127.99791760169052 28.19228988288674 H 0.0 **** 0.06
20526 C 104.50016069881775 20.275209761866904 12.546813214897924 C 0.0 **** -0.24
20527 H 105.02601879073046 20.96298954564537 13.209011387973192 H 0.0 **** 0.06
20528 H 103.93224742953404 19.560180468035867 13.143609548991321 H 0.0 **** 0.06
20529 H 105.22339558019283 19.74123338162488 11.930490478542964 H 0.0 **** 0.06
20530 H 103.81951260970607 20.83592719166529 11.906477898903347 H 0.0 **** 0.06
20531 C 88.08448884220866 72.42220242792462 79.9379271358082 C 0.0 **** -0.24
20532 H 87.94207426553879 72.94763367352027 80.8821613625405 H 0.0 **** 0.06
20533 H 87.31064745996434 72.72682443523587 79.23267387769738 H 0.0 **** 0.06
20534 H 88.01936251989258 71.3470841958137 80.10720369334678 H 0.0 **** 0.06
20535 H 89.064620117517 72.6671524489883 79.53031908995825 H 0.0 **** 0.06
20536 C 19.595283417183367 28.831723105825944 155.98393567462344 C 0.0 **** -0.24
20537 H 18.703814750112144 29.36536697293245 155.6537992871195 H 0.0 **** 0.06
20538 H 19.638243585403984 27.859270386306548 155.4923084295274 H 0.0 **** 0.06
20539 H 19.55592789088547 28.692684481326225 157.06375350857513 H 0.0 **** 0.06
20540 H 20.481617173897945 29.409727478201972 155.72311851441356 H 0.0 **** 0.06
20541 C 79.59868357100652 62.4909415202666 107.16070199730567 C 0.0 **** -0.24
20542 H 79.48126046741152 61.700191567080665 106.41864165159382 H 0.0 **** 0.06
20543 H 80.09190168942274 63.34777768055086 106.70211083195468 H 0.0 **** 0.06
20544 H 80.20198448839517 62.122981340132995 107.99044863741534 H 0.0 **** 0.06
20545 H 78.6167728111825 62.78994853207186 107.52940281168529 H 0.0 **** 0.06
20546 C 115.20067749788379 62.47457544877818 103.17628463139485 C 0.0 **** -0.24
20547 H 115.53006631705304 63.354640351477485 102.62367992122469 H 0.0 **** 0.06
20548 H 114.12472624429353 62.53359455450891 103.34554737864514 H 0.0 **** 0.06
20549 H 115.71763213904367 62.43396702406241 104.13553645779638 H 0.0 **** 0.06
20550 H 115.43006672642025 61.577921647363326 102.60165284395688 H 0.0 **** 0.06
20551 C 75.11536547191878 169.84012531767283 106.21749750753384 C 0.0 **** -0.24
20552 H 75.99017097471626 169.73330709795502 105.57682336348407 H 0.0 **** 0.06
20553 H 74.86825036285425 168.87401146849268 106.65796470053292 H 0.0 **** 0.06
20554 H 74.27183653702467 170.19497176302448 105.62464580233657 H 0.0 **** 0.06
20555 H 75.32953518230924 170.5574418100137 107.00893640804784 H 0.0 **** 0.06
20556 C 121.04338209144925 37.92130713833754 20.131277398741673 C 0.0 **** -0.24
20557 H 120.41112568640614 38.77663392826227 20.366732423220157 H 0.0 **** 0.06
20558 H 121.14071378542354 37.82902301189938 19.04940893377011 H 0.0 **** 0.06
20559 H 120.5927358447239 37.01488941577077 20.534077627897773 H 0.0 **** 0.06
20560 H 122.02891962802761 38.06481123535218 20.57348267254534 H 0.0 **** 0.06
20561 C 61.7871525259806 140.41677324262184 93.6041516819763 C 0.0 **** -0.24
20562 H 62.58437945142687 141.03425595156403 94.01946187091232 H 0.0 **** 0.06
20563 H 61.225606178447734 140.99565650985062 92.8701904592474 H 0.0 **** 0.06
20564 H 61.11980006782774 140.09887280879792 94.40529099554647 H 0.0 **** 0.06
20565 H 62.21983223346109 139.54097106053985 93.1226073554486 H 0.0 **** 0.06
20566 C 163.64590643966878 67.0400120333737 81.27180828875294 C 0.0 **** -0.24
20567 H 162.80902928447475 66.36136961162475 81.1083847218112 H 0.0 **** 0.06
20568 H 163.80462356830316 67.64260408616838 80.37674018308212 H 0.0 **** 0.06
20569 H 164.54511857798244 66.46134997249789 81.48428404717811 H 0.0 **** 0.06
20570 H 163.4252348385921 67.69280102823981 82.11578561690624 H 0.0 **** 0.06
20571 C 10.0665131843202 65.90778450450219 62.27754879763032 C 0.0 **** -0.24
20572 H 10.218482228421038 65.22626084575529 63.11535434541531 H 0.0 **** 0.06
20573 H 11.032799437699538 66.26351944127416 61.91914716087801 H 0.0 **** 0.06
20574 H 9.464812930039926 66.75603471435659 62.60448545887088 H 0.0 **** 0.06
20575 H 9.550118753022787 65.38411063079838 61.47308024674854 H 0.0 **** 0.06
20576 C 133.6298930988059 77.86010095719311 58.13321681439537 C 0.0 **** -0.24
20577 H 132.5539762623461 77.69978328235646 58.05558033227611 H 0.0 **** 0.06
20578 H 133.89340852862438 78.05151382582875 59.174035219656844 H 0.0 **** 0.06
20579 H 133.9143414309159 78.71696204225566 57.522606129503245 H 0.0 **** 0.06
20580 H 134.1560820411004 76.97254342770702 57.781960481482386 H 0.0 **** 0.06
20581 C 145.07041056571308 13.000242087478597 23.16996211850482 C 0.0 **** -0.24
20582 H 145.96472519826318 12.628545844358257 23.670035536970886 H 0.0 **** 0.06
20583 H 145.24630790175377 14.017901052579816 22.821288138864354 H 0.0 **** 0.06
20584 H 144.2335398927367 12.993511819688223 23.868249568236365 H 0.0 **** 0.06
20585 H 144.83819504575328 12.359608932641834 22.318610647577763 H 0.0 **** 0.06
20586 C 23.65833320063399 15.291794800254948 27.50935119969347 C 0.0 **** -0.24
20587 H 24.257500573587578 15.947798667108081 28.141612695171148 H 0.0 **** 0.06
20588 H 22.762688000265257 14.98497356072405 28.0495109786105 H 0.0 **** 0.06
20589 H 24.243013263994897 14.410285886262535 27.24444655558318 H 0.0 **** 0.06
20590 H 23.372215201083065 15.82359244296849 26.602448274449273 H 0.0 **** 0.06
20591 C 114.64954868877709 66.5653062272936 83.37252465037881 C 0.0 **** -0.24
20592 H 115.02030539378663 65.73570749218402 83.97495523043774 H 0.0 **** 0.06
20593 H 113.59542850232597 66.73220604357294 83.59455679900921 H 0.0 **** 0.06
20594 H 114.7649616748316 66.32494115001856 82.31509205696969 H 0.0 **** 0.06
20595 H 115.21782329229785 67.46554430543628 83.60454089411913 H 0.0 **** 0.06
20596 C 118.05751223366383 13.390239460558746 85.33898902073808 C 0.0 **** -0.24
20597 H 117.48040712704395 12.994362510348594 84.50358354482998 H 0.0 **** 0.06
20598 H 119.10507404019549 13.112417833985603 85.22103309259234 H 0.0 **** 0.06
20599 H 117.67505504244463 12.976943658879861 86.27199022522461 H 0.0 **** 0.06
20600 H 117.96936045445983 14.476363582159081 85.35981772283277 H 0.0 **** 0.06
20601 C 161.40650439473097 166.39339915877343 140.37850821639785 C 0.0 **** -0.24
20602 H 161.745011275095 165.97470128827834 139.43096013838613 H 0.0 **** 0.06
20603 H 161.87444948054048 167.36567320475098 140.5344914708327 H 0.0 **** 0.06
20604 H 161.6831036528567 165.72177484228686 141.19132973276623 H 0.0 **** 0.06
20605 H 160.32256734840462 166.51098454540283 140.35728624617474 H 0.0 **** 0.06
20606 C 40.111037470390585 157.91129652382756 64.09326405558205 C 0.0 **** -0.24
20607 H 40.46669486231747 158.9272715626462 63.91923891470944 H 0.0 **** 0.06
20608 H 39.338822742093384 157.92322206782848 64.86218886898506 H 0.0 **** 0.06
20609 H 40.94199563340722 157.28688690427828 64.41987133349285 H 0.0 **** 0.06
20610 H 39.69631899058797 157.5092801392732 63.168332911056 H 0.0 **** 0.06
20611 C 149.39420527618887 32.816318287243746 100.99932063010564 C 0.0 **** -0.24
20612 H 148.54529809063592 32.204999837844426 101.30519073879208 H 0.0 **** 0.06
20613 H 150.19025352256682 32.727928061430944 101.73977696867487 H 0.0 **** 0.06
20614 H 149.08266481912307 33.85762411876726 100.92222411925113 H 0.0 **** 0.06
20615 H 149.75860570945383 32.47292742893359 100.03142589845405 H 0.0 **** 0.06
20616 C 70.83373094646572 149.49814426599048 82.64793883777489 C 0.0 **** -0.24
20617 H 71.36526722046409 148.8776795247936 83.36849406841338 H 0.0 **** 0.06
20618 H 71.506188655198 149.76202061684393 81.83114687470652 H 0.0 **** 0.06
20619 H 70.4843617905281 150.40717970883162 83.13865868911222 H 0.0 **** 0.06
20620 H 69.98068220777148 148.9475720830588 82.25348699197522 H 0.0 **** 0.06
20621 C 125.10778327104904 62.81902117401992 38.50018597780047 C 0.0 **** -0.24
20622 H 124.11001249287219 62.91517491886421 38.0702032332959 H 0.0 **** 0.06
20623 H 125.69650608257783 62.12459388085608 37.90042904143732 H 0.0 **** 0.06
20624 H 125.02818396341351 62.442384829360975 39.52039881093751 H 0.0 **** 0.06
20625 H 125.59431367179243 63.79460704868575 38.509961893459206 H 0.0 **** 0.06
20626 C 170.9499609916405 160.57440682337963 94.08947091477953 C 0.0 **** -0.24
20627 H 170.29813329017838 161.27749780636026 94.61054862097768 H 0.0 **** 0.06
20628 H 170.3549123703965 159.74755715246226 93.70241028585767 H 0.0 **** 0.06
20629 H 171.6985290284387 160.19220269003623 94.78387144357094 H 0.0 **** 0.06
20630 H 171.44667390733997 161.08401136967197 93.26354193229415 H 0.0 **** 0.06
20631 C 59.13529511946335 21.47009632308169 134.21709237415735 C 0.0 **** -0.24
20632 H 60.018680158433625 21.504498624457433 134.8541281024052 H 0.0 **** 0.06
20633 H 59.231094433093034 22.21072238514875 133.4220082516307 H 0.0 **** 0.06
20634 H 58.24913011519851 21.689320965321407 134.81226151962264 H 0.0 **** 0.06
20635 H 59.04184693472938 20.475923690414824 133.77862637377996 H 0.0 **** 0.06
20636 C 50.62743656211833 75.23211937381056 130.95005530604215 C 0.0 **** -0.24
20637 H 50.20489798686667 76.01548807742942 130.32021895119536 H 0.0 **** 0.06
20638 H 50.54052496955151 74.27203730549276 130.4417935926447 H 0.0 **** 0.06
20639 H 50.08546991321275 75.1946205138508 131.8948918871222 H 0.0 **** 0.06
20640 H 51.67859856300977 75.44899441529259 131.14195858598976 H 0.0 **** 0.06
20641 C 34.5341672914727 143.08823863439383 6.681789989076513 C 0.0 **** -0.24
20642 H 33.708962914219796 143.60628065354626 6.19287139188615 H 0.0 **** 0.06
20643 H 35.36536906984392 142.98834536451255 5.98265683520065 H 0.0 **** 0.06
20644 H 34.205620243495105 142.0991558708936 7.000824950609186 H 0.0 **** 0.06
20645 H 34.857681655676316 143.6610007922129 7.551659627435214 H 0.0 **** 0.06
20646 C 8.357426760782602 51.69887103234896 80.22382947268414 C 0.0 **** -0.24
20647 H 7.657542057784951 50.92003801919539 80.52505148161269 H 0.0 **** 0.06
20648 H 8.829210787637976 51.41907691350116 79.28204061072876 H 0.0 **** 0.06
20649 H 9.120773975707493 51.81848851174793 80.99210341429428 H 0.0 **** 0.06
20650 H 7.820624377747549 52.63948178236839 80.09624877785708 H 0.0 **** 0.06
20651 C 74.47795096705057 13.863503917006597 31.404465897501552 C 0.0 **** -0.24
20652 H 73.83917491217669 13.637351594891072 30.55086912168082 H 0.0 **** 0.06
20653 H 74.47037500025128 13.02153252708547 32.09683283423294 H 0.0 **** 0.06
20654 H 74.10402438295996 14.753470092151986 31.910980764651413 H 0.0 **** 0.06
20655 H 75.49589303256612 14.042385776778588 31.05905396938607 H 0.0 **** 0.06
20656 C 119.3383392591887 49.49120564330826 44.259480449497914 C 0.0 **** -0.24
20657 H 119.22566683412819 48.71107471263363 45.01236479754857 H 0.0 **** 0.06
20658 H 118.66840900337328 50.319230926502144 44.49303085564844 H 0.0 **** 0.06
20659 H 119.08868063489498 49.086899286039625 43.27846713257665 H 0.0 **** 0.06
20660 H 120.36871422505737 49.846175686904246 44.25589278523012 H 0.0 **** 0.06
20661 C 88.0560693389088 164.28133103888666 14.144999934360811 C 0.0 **** -0.24
20662 H 87.8042953774281 164.81916351691694 13.231227386166154 H 0.0 **** 0.06
20663 H 87.16717991370632 163.77880349307398 14.52797888260892 H 0.0 **** 0.06
20664 H 88.42614409943866 164.98537500268964 14.890790102010925 H 0.0 **** 0.06
20665 H 88.8282641357635 163.54150712765585 13.930444569585177 H 0.0 **** 0.06
20666 C 73.62408002003866 157.687320423266 145.20918382383243 C 0.0 **** -0.24
20667 H 74.63677813942559 157.76641270612282 144.81497944806028 H 0.0 **** 0.06
20668 H 73.12778330566042 158.6553816605059 145.13293272677888 H 0.0 **** 0.06
20669 H 73.66349702119186 157.3807619599532 146.2547054203692 H 0.0 **** 0.06
20670 H 73.06740705731374 156.94724098797926 144.6340552863101 H 0.0 **** 0.06
20671 C 90.11081749132164 79.19801715686988 109.59981905682062 C 0.0 **** -0.24
20672 H 89.70021193799889 80.18825636810037 109.39971008602555 H 0.0 **** 0.06
20673 H 89.29588417265742 78.47948941144905 109.694411788829 H 0.0 **** 0.06
20674 H 90.68217693673739 79.22285086863901 110.52790841929112 H 0.0 **** 0.06
20675 H 90.7637769397441 78.9028538738817 108.77851169785237 H 0.0 **** 0.06
20676 C 85.11122865525283 16.879125669058595 169.48660668725566 C 0.0 **** -0.24
20677 H 84.9336420478441 17.11771691572293 168.43784627318155 H 0.0 **** 0.06
20678 H 84.36106395885474 17.374844074859432 170.10318060063625 H 0.0 **** 0.06
20679 H 86.10441459474441 17.22202757140196 169.7745999641201 H 0.0 **** 0.06
20680 H 85.04478609262952 15.800427712241088 169.62861475301045 H 0.0 **** 0.06
20681 C 108.09241989580548 97.54127717317778 146.4987553556216 C 0.0 **** -0.24
20682 H 108.40261085425087 96.53574691096321 146.21345960930444 H 0.0 **** 0.06
20683 H 108.30374835354337 98.23153716627775 145.68154691616672 H 0.0 **** 0.06
20684 H 108.64006647776017 97.85109908403356 147.38800714784827 H 0.0 **** 0.06
20685 H 107.0229696429017 97.54376865329576 146.709964116616 H 0.0 **** 0.06
20686 C 97.31697668931767 18.93632562766487 165.91045687188057 C 0.0 **** -0.24
20687 H 97.67727188972785 18.47763977586291 166.8301789966778 H 0.0 **** 0.06
20688 H 96.3832801539991 19.463554566894686 166.1088469899878 H 0.0 **** 0.06
20689 H 97.1462548561787 18.16330455982569 165.1610526583223 H 0.0 **** 0.06
20690 H 98.06067415787464 19.64225704506589 165.5409083756065 H 0.0 **** 0.06
20691 C 65.54015474374165 156.39120776327098 167.63201680969863 C 0.0 **** -0.24
20692 H 65.89764411133693 156.83682715668002 168.5602150042649 H 0.0 **** 0.06
20693 H 65.25806978483159 155.35395020086764 167.81215010813128 H 0.0 **** 0.06
20694 H 66.33205659205532 156.42847533354436 166.88278598778138 H 0.0 **** 0.06
20695 H 64.67422661302474 156.94743636952956 167.27211069244782 H 0.0 **** 0.06
20696 C 162.29743908016508 104.92520627929551 57.92632930691249 C 0.0 **** -0.24
20697 H 162.77615961020186 105.8962277998682 57.79412459552117 H 0.0 **** 0.06
20698 H 162.09555325790015 104.76249007632617 58.985392930101455 H 0.0 **** 0.06
20699 H 162.9574770482792 104.14096298010966 57.55649894652677 H 0.0 **** 0.06
20700 H 161.36045947071648 104.90465628220005 57.37010985040308 H 0.0 **** 0.06
20701 C 118.22141060698814 99.26383645944827 11.019460947963239 C 0.0 **** -0.24
20702 H 117.20190527083153 99.40942686044306 10.661327578244567 H 0.0 **** 0.06
20703 H 118.73770425428413 98.55852467453732 10.368260256631515 H 0.0 **** 0.06
20704 H 118.19528679507692 98.86893636835987 12.035201887706478 H 0.0 **** 0.06
20705 H 118.74838877602491 100.21779500742639 11.013114752380773 H 0.0 **** 0.06
20706 C 5.496127501593321 46.018581937363564 85.19047924894636 C 0.0 **** -0.24
20707 H 5.101464903105239 46.84383294384941 84.59860902086064 H 0.0 **** 0.06
20708 H 5.270619190409093 45.0750535850716 84.6927569817446 H 0.0 **** 0.06
20709 H 5.036929648557134 46.02809780367886 86.17860168253088 H 0.0 **** 0.06
20710 H 6.57626564655709 46.12751025232916 85.2913326707208 H 0.0 **** 0.06
20711 C 88.21381566664219 15.485089607138235 162.54318284872534 C 0.0 **** -0.24
20712 H 88.9821912234596 14.962607737891489 163.1128027905333 H 0.0 **** 0.06
20713 H 87.73503191501628 16.231102567799667 163.17847648323502 H 0.0 **** 0.06
20714 H 87.46760811306426 14.768733797663174 162.19862974229363 H 0.0 **** 0.06
20715 H 88.6693421127364 15.976938274517721 161.68418651127814 H 0.0 **** 0.06
20716 C 68.5299342174481 106.5475440742627 112.09260172260963 C 0.0 **** -0.24
20717 H 67.82814859145992 107.1317808649103 111.49849192105063 H 0.0 **** 0.06
20718 H 68.08906963825893 106.32993208768193 113.06567193823125 H 0.0 **** 0.06
20719 H 69.45050205216666 107.11429262805487 112.22826709841766 H 0.0 **** 0.06
20720 H 68.75273144608741 105.61271688680597 111.57736320027041 H 0.0 **** 0.06
20721 C 116.22531544596595 104.46318694683083 137.40479280293178 C 0.0 **** -0.24
20722 H 117.29279541705827 104.57593690644288 137.5951402559711 H 0.0 **** 0.06
20723 H 116.06170807610997 103.61493164150454 136.7411131260848 H 0.0 **** 0.06
20724 H 115.84219362058772 105.3710267539627 136.9376046526709 H 0.0 **** 0.06
20725 H 115.70523475675967 104.29291527347684 138.34801432943308 H 0.0 **** 0.06
20726 C 92.91449176948191 64.7085093605631 109.9901015352448 C 0.0 **** -0.24
20727 H 92.41050657352727 64.73655450446657 109.02408519292732 H 0.0 **** 0.06
20728 H 93.24365405242563 63.69058257378252 110.19843882994653 H 0.0 **** 0.06
20729 H 92.22479945213763 65.03406958204134 110.76886801867511 H 0.0 **** 0.06
20730 H 93.77818450356716 65.37302309324963 109.96847880120805 H 0.0 **** 0.06
20731 C 52.714323158244554 135.8077918150846 161.95360153578696 C 0.0 **** -0.24
20732 H 52.03609114336723 136.19021613427142 161.19065647516675 H 0.0 **** 0.06
20733 H 52.21219444239637 135.81297139275688 162.92158817784468 H 0.0 **** 0.06
20734 H 53.601213103089435 136.43905074904444 162.00023355107848 H 0.0 **** 0.06
20735 H 53.007222468584416 134.78855604188522 161.70068923588482 H 0.0 **** 0.06
20736 C 72.01305638615996 2.849787941483271 70.73454067212282 C 0.0 **** -0.24
20737 H 72.5381531079603 1.8946147345052964 70.73766511713495 H 0.0 **** 0.06
20738 H 71.5105468571847 2.9902067980888205 71.6913195863109 H 0.0 **** 0.06
20739 H 71.27555560395889 2.8558010745227875 69.93144749830088 H 0.0 **** 0.06
20740 H 72.72841095951509 3.65763739552591 70.57762890280816 H 0.0 **** 0.06
20741 C 158.94879324101205 135.18797935462763 75.40166720218274 C 0.0 **** -0.24
20742 H 159.2028372509598 134.4669005852748 74.6253739540532 H 0.0 **** 0.06
20743 H 158.93910594437233 136.1917215111208 74.97531399184837 H 0.0 **** 0.06
20744 H 159.6912973186675 135.13931104427823 76.19880853440566 H 0.0 **** 0.06
20745 H 157.9648419970109 134.95419058005544 75.80647073933122 H 0.0 **** 0.06
20746 C 117.60920799033485 131.75251500697857 101.46717632122221 C 0.0 **** -0.24
20747 H 118.67257595436669 131.94217184072136 101.61803082705384 H 0.0 **** 0.06
20748 H 117.1929696767954 131.2919941711964 102.36251836735408 H 0.0 **** 0.06
20749 H 117.47824042931313 131.08223354786276 100.6173319447266 H 0.0 **** 0.06
20750 H 117.09699910494652 132.69401497106878 101.26902219240989 H 0.0 **** 0.06
20751 C 8.446119079644106 170.81933514484385 75.26134685712584 C 0.0 **** -0.24
20752 H 7.627808051143859 171.4228428676897 74.86915345834926 H 0.0 **** 0.06
20753 H 8.745371648951057 170.083305081602 74.51494358852324 H 0.0 **** 0.06
20754 H 8.1197556116309 170.30717572766122 76.16639204840628 H 0.0 **** 0.06
20755 H 9.293931958798076 171.46450852661889 75.49510283756865 H 0.0 **** 0.06
20756 C 145.78890180263514 35.57357393124482 80.95795780562547 C 0.0 **** -0.24
20757 H 145.32645670329615 36.426898331705445 80.46171473260749 H 0.0 **** 0.06
20758 H 145.67113601181805 35.67368544073463 82.0371181735475 H 0.0 **** 0.06
20759 H 146.84987068118946 35.5398633592381 80.70930576858319 H 0.0 **** 0.06
20760 H 145.30787648150013 34.65417343879062 80.62278533414626 H 0.0 **** 0.06
20761 C 83.78647011066148 103.14416517636397 57.99189295761903 C 0.0 **** -0.24
20762 H 84.66219255043619 102.96724579385517 57.3672811326057 H 0.0 **** 0.06
20763 H 84.02246959068188 103.90042896466099 58.74099076954528 H 0.0 **** 0.06
20764 H 83.50111172022048 102.21739109566016 58.48801646239315 H 0.0 **** 0.06
20765 H 82.96171639947185 103.4931151876105 57.37023597821879 H 0.0 **** 0.06
20766 C 65.24431612389981 154.77469156099747 38.50506351487866 C 0.0 **** -0.24
20767 H 65.24819436299295 155.75728113659113 38.97761498271966 H 0.0 **** 0.06
20768 H 64.88334706596002 154.03196660479108 39.21614729970284 H 0.0 **** 0.06
20769 H 66.25723367793341 154.5187004333764 38.19332360174229 H 0.0 **** 0.06
20770 H 64.59026744064423 154.7939546640906 37.633194004271104 H 0.0 **** 0.06
20771 C 95.61932380315767 83.80087653823358 4.824911101578458 C 0.0 **** -0.24
20772 H 96.4148376977196 83.0757384176781 4.657010833741133 H 0.0 **** 0.06
20773 H 95.32971041981506 83.78477834563877 5.876475732145153 H 0.0 **** 0.06
20774 H 94.75828536758789 83.54514858628787 4.207569051905665 H 0.0 **** 0.06
20775 H 95.97389666945546 84.79692807113054 4.560550361612258 H 0.0 **** 0.06
20776 C 83.74191362925045 110.78920467337102 20.12597184682204 C 0.0 **** -0.24
20777 H 83.20592319917833 110.31327283594104 19.30428677694954 H 0.0 **** 0.06
20778 H 83.42299664299343 110.34798035847035 21.070001629307285 H 0.0 **** 0.06
20779 H 83.52259372732647 111.85745582802124 20.131757133456915 H 0.0 **** 0.06
20780 H 84.8133785169798 110.63885332542509 19.99693840573258 H 0.0 **** 0.06
20781 C 52.38673032573361 163.26170075320428 115.47509144704463 C 0.0 **** -0.24
20782 H 52.1483926333096 163.78679916347727 116.4001806292762 H 0.0 **** 0.06
20783 H 52.270756499826646 163.94254125074042 114.63206329679016 H 0.0 **** 0.06
20784 H 51.71251311007609 162.41373551257195 115.35521952173804 H 0.0 **** 0.06
20785 H 53.41610915587361 162.9046257194439 115.51597969341967 H 0.0 **** 0.06
20786 C 162.60803453542766 128.83647577024556 150.9417010783354 C 0.0 **** -0.24
20787 H 163.2372021798655 129.30435141277582 151.69988818279387 H 0.0 **** 0.06
20788 H 162.1833737020247 127.915615838946 151.34045454450182 H 0.0 **** 0.06
20789 H 163.2093806534728 128.60887932588838 150.06107578195179 H 0.0 **** 0.06
20790 H 161.80406342228522 129.51847794678963 150.66604794832182 H 0.0 **** 0.06
20791 C 139.16956444588934 79.1751850010546 77.33546369453128 C 0.0 **** -0.24
20792 H 139.65562853597888 78.42867461368132 77.96400179256318 H 0.0 **** 0.06
20793 H 138.75966789623587 78.69146597583325 76.44833634564264 H 0.0 **** 0.06
20794 H 139.8981844501804 79.92813022870844 77.03639090249612 H 0.0 **** 0.06
20795 H 138.36395027647677 79.65122258739005 77.89506554440806 H 0.0 **** 0.06
20796 C 50.23784589960211 123.07965557205799 95.09698130572878 C 0.0 **** -0.24
20797 H 49.15524489339441 123.02263516157521 94.98059857831842 H 0.0 **** 0.06
20798 H 50.689566154432185 123.37007696709111 94.14825193423474 H 0.0 **** 0.06
20799 H 50.621650638610475 122.10572645971612 95.39983964970193 H 0.0 **** 0.06
20800 H 50.48289933494189 123.81988536545123 95.85832934635323 H 0.0 **** 0.06
20801 C 161.38639063883545 137.80089497996198 104.82069034230207 C 0.0 **** -0.24
20802 H 161.92460651125546 138.74799593755446 104.86407984077692 H 0.0 **** 0.06
20803 H 160.95979829392414 137.5811242951784 105.79956214834326 H 0.0 **** 0.06
20804 H 162.0748631998332 137.00408684042276 104.53640078627575 H 0.0 **** 0.06
20805 H 160.5872047511376 137.87077813413367 104.08263312738723 H 0.0 **** 0.06
20806 C 118.69195693447176 10.278116876318308 28.003513025611312 C 0.0 **** -0.24
20807 H 119.21613818500094 10.17128416033043 28.953060267455015 H 0.0 **** 0.06
20808 H 117.71679046823976 9.79470885406056 28.07147083794017 H 0.0 **** 0.06
20809 H 119.27642186783436 9.810329422879676 27.21123161981013 H 0.0 **** 0.06
20810 H 118.55774860810271 11.336473817959273 27.779825976279852 H 0.0 **** 0.06
20811 C 92.96381437844883 98.0649506191906 114.13378318369422 C 0.0 **** -0.24
20812 H 92.39667821213052 98.55236482033752 114.92655499149262 H 0.0 **** 0.06
20813 H 94.01117768165173 97.99532433842393 114.42644418115094 H 0.0 **** 0.06
20814 H 92.8802269048783 98.64875819490402 113.21628382331485 H 0.0 **** 0.06
20815 H 92.56621977083668 97.06427666133499 113.96405001986213 H 0.0 **** 0.06
20816 C 62.476816961187254 123.76419372965637 77.95215706477194 C 0.0 **** -0.24
20817 H 61.47948282492838 123.33053198806113 78.02346829633495 H 0.0 **** 0.06
20818 H 62.702244724482284 124.31058327552762 78.86788899483508 H 0.0 **** 0.06
20819 H 62.51611940859014 124.44639262913489 77.10239169102624 H 0.0 **** 0.06
20820 H 63.208847701725276 122.96891326683962 77.81274703555556 H 0.0 **** 0.06
20821 C 14.707070211993354 161.63843472737142 47.6425415363378 C 0.0 **** -0.24
20822 H 15.711530595470684 161.22983181608467 47.53163082177639 H 0.0 **** 0.06
20823 H 14.001943092802982 160.82629847912193 47.82305657745775 H 0.0 **** 0.06
20824 H 14.427285458575518 162.16753599664455 46.73143971431182 H 0.0 **** 0.06
20825 H 14.687436898411512 162.33020805202372 48.4850261964105 H 0.0 **** 0.06
20826 C 172.7890187954757 159.66189486581922 143.2807610582723 C 0.0 **** -0.24
20827 H 173.78226406436875 159.23810394612462 143.4290455072298 H 0.0 **** 0.06
20828 H 172.5775031294482 160.3766292332561 144.07639294950135 H 0.0 **** 0.06
20829 H 172.04692690711602 158.8643016413729 143.30262063462953 H 0.0 **** 0.06
20830 H 172.7504827689512 160.16826685961195 142.31663111620384 H 0.0 **** 0.06
20831 C 35.44452126792635 66.1517623267485 41.60674232987962 C 0.0 **** -0.24
20832 H 34.84212171743803 65.51485388729066 40.95964837763326 H 0.0 **** 0.06
20833 H 36.48846969284557 65.84032325797098 41.55284777591386 H 0.0 **** 0.06
20834 H 35.091134349781555 66.06317082527234 42.63434557706978 H 0.0 **** 0.06
20835 H 35.356996944150836 67.18847329387135 41.28086342128144 H 0.0 **** 0.06
20836 C 128.96095931486605 17.547738773490956 30.41445730979791 C 0.0 **** -0.24
20837 H 128.97124417752877 17.57522744180995 29.32513377542162 H 0.0 **** 0.06
20838 H 129.5478064199936 16.69623244557725 30.760800593491865 H 0.0 **** 0.06
20839 H 127.93471256514059 17.44941565439379 30.765678472287306 H 0.0 **** 0.06
20840 H 129.39269592214478 18.469017370871285 30.805217371406457 H 0.0 **** 0.06
20841 C 172.687580913282 64.40804969942327 52.403038912950166 C 0.0 **** -0.24
20842 H 173.55708158517547 63.75269621000737 52.451932318789716 H 0.0 **** 0.06
20843 H 173.01315173052444 65.42888717400928 52.20215912702102 H 0.0 **** 0.06
20844 H 172.1559148185451 64.37668236436251 53.35437978549163 H 0.0 **** 0.06
20845 H 172.02509650758188 64.07331927883382 51.60562740924627 H 0.0 **** 0.06
20846 C 11.35030229470243 103.43712640799714 67.44604385627697 C 0.0 **** -0.24
20847 H 11.847064870033961 104.2201251846572 68.01895139155538 H 0.0 **** 0.06
20848 H 10.270846764929786 103.53204833763283 67.56251171907485 H 0.0 **** 0.06
20849 H 11.671067067671885 102.4617360252802 67.80985384202727 H 0.0 **** 0.06
20850 H 11.61218771391816 103.5369747481181 66.39227512179677 H 0.0 **** 0.06
20851 C 23.100468805918766 116.94845976926973 93.22272454709884 C 0.0 **** -0.24
20852 H 23.92220091020453 117.6494442440383 93.37174575452858 H 0.0 **** 0.06
20853 H 22.295514616962365 117.44280314945479 92.67969182591955 H 0.0 **** 0.06
20854 H 22.732399605876545 116.60888044587585 94.19045287124217 H 0.0 **** 0.06
20855 H 23.454122987679327 116.09159514914961 92.64792547642094 H 0.0 **** 0.06
20856 C 47.45756841309024 44.610215331856466 0.6141826724596342 C 0.0 **** -0.24
20857 H 46.610263429280764 43.93068601101845 0.7052944078774033 H 0.0 **** 0.06
20858 H 47.11880927311407 45.63514784009749 0.7665926262224616 H 0.0 **** 0.06
20859 H 47.89422408149895 44.515059155781785 -0.37988186689688064 H 0.0 **** 0.06
20860 H 48.20612909232075 44.359586258217405 1.3657910553004626 H 0.0 **** 0.06
20861 C 90.07703296246203 28.785752914053745 72.70632404338613 C 0.0 **** -0.24
20862 H 90.33800408147246 28.431124874752797 73.70316916618617 H 0.0 **** 0.06
20863 H 90.26047689420606 29.858279681926916 72.64273286071005 H 0.0 **** 0.06
20864 H 89.02261134420968 28.585715704372646 72.51407324455135 H 0.0 **** 0.06
20865 H 90.68639054388507 28.267148807116186 71.96548645571181 H 0.0 **** 0.06
20866 C 135.89917809581993 22.115050158060853 154.98493687189494 C 0.0 **** -0.24
20867 H 136.39730197799094 22.217625573605858 154.02136277519537 H 0.0 **** 0.06
20868 H 136.60793572124535 22.328091000115194 155.78586223910364 H 0.0 **** 0.06
20869 H 135.52263170656963 21.098656343190385 155.09354430249982 H 0.0 **** 0.06
20870 H 135.06754874244004 22.81778829637551 155.03967188919725 H 0.0 **** 0.06
20871 C 7.530689073014344 29.21366029722492 153.76535532466966 C 0.0 **** -0.24
20872 H 8.316335465337147 28.49731892285422 153.52212085549422 H 0.0 **** 0.06
20873 H 7.550576501315675 29.425213390674344 154.83492953566378 H 0.0 **** 0.06
20874 H 6.561196856156357 28.794244284514775 153.49483867095057 H 0.0 **** 0.06
20875 H 7.695786388046713 30.135989144617042 153.2091013015019 H 0.0 **** 0.06
20876 C 163.25891670068629 69.27728927970878 151.705749485613 C 0.0 **** -0.24
20877 H 163.9452921676464 68.46549543312719 151.9491538596999 H 0.0 **** 0.06
20878 H 162.46208731997316 68.9002741540794 151.06535219290743 H 0.0 **** 0.06
20879 H 163.80146967940826 70.06704056144741 151.186449617275 H 0.0 **** 0.06
20880 H 162.82919990175134 69.67655942198402 152.62491978257336 H 0.0 **** 0.06
20881 C 30.905480134574418 59.687028561136216 137.92633359208384 C 0.0 **** -0.24
20882 H 30.973561996655803 59.575790030042484 136.84355657397685 H 0.0 **** 0.06
20883 H 29.958932650485707 59.27443821280323 138.27420601782035 H 0.0 **** 0.06
20884 H 30.959379564014682 60.74441668538479 138.185708601189 H 0.0 **** 0.06
20885 H 31.730636335952425 59.154170015171914 138.39784305276936 H 0.0 **** 0.06
20886 C 57.36297884447511 50.84145087223115 46.933386514317135 C 0.0 **** -0.24
20887 H 56.64273449710578 50.36968288943575 46.26519400686813 H 0.0 **** 0.06
20888 H 58.062531501324074 50.09202884872448 47.301857488760675 H 0.0 **** 0.06
20889 H 56.83579176268702 51.2925584693499 47.774565405444605 H 0.0 **** 0.06
20890 H 57.90965842379386 51.61354465763267 46.39121049808861 H 0.0 **** 0.06
20891 C 45.09002789087195 49.46992901286218 113.12255599428553 C 0.0 **** -0.24
20892 H 44.93873146112459 50.16602665236054 113.94768123111041 H 0.0 **** 0.06
20893 H 45.18467076040584 48.45690389733795 113.51456370898416 H 0.0 **** 0.06
20894 H 45.998223186431304 49.73778825753513 112.58289785556599 H 0.0 **** 0.06
20895 H 44.23725578627587 49.519073092857695 112.44438800448054 H 0.0 **** 0.06
20896 C 170.06428341184025 122.86864063050817 49.73039355546261 C 0.0 **** -0.24
20897 H 169.77438081127602 123.80751038800608 50.201082642621714 H 0.0 **** 0.06
20898 H 170.6277454217319 123.0772679282365 48.82085938696173 H 0.0 **** 0.06
20899 H 169.17030192732392 122.29613481926307 49.48147507591813 H 0.0 **** 0.06
20900 H 170.68399697219564 122.29395961701732 50.418790986765785 H 0.0 **** 0.06
20901 C 22.699429239314725 25.683917782407036 26.102021507400252 C 0.0 **** -0.24
20902 H 23.060043068742118 26.630408361920047 26.504629791618413 H 0.0 **** 0.06
20903 H 22.64082719260489 24.94799308446113 26.90447265712038 H 0.0 **** 0.06
20904 H 23.38707542619167 25.3307682899499 25.333542266627347 H 0.0 **** 0.06
20905 H 21.710677069915505 25.827422183133734 25.667266639340824 H 0.0 **** 0.06
20906 C 65.17755890942463 169.23182263286387 151.2638444308333 C 0.0 **** -0.24
20907 H 66.15158411180607 169.7155359789312 151.34015629651395 H 0.0 **** 0.06
20908 H 65.31120811782536 168.1934331065374 150.9579959239187 H 0.0 **** 0.06
20909 H 64.56919572471713 169.75384179637894 150.5253795305834 H 0.0 **** 0.06
20910 H 64.67980614840873 169.26333495862184 152.23334964674947 H 0.0 **** 0.06
20911 C 62.296387633070694 91.12080402318693 20.009120934998016 C 0.0 **** -0.24
20912 H 61.642257849489155 90.31467529243761 20.342654898873434 H 0.0 **** 0.06
20913 H 63.02850454509209 90.72566864051012 19.305181996545812 H 0.0 **** 0.06
20914 H 62.81181436969885 91.54955013922407 20.868441147171723 H 0.0 **** 0.06
20915 H 61.70127124100091 91.89156515936281 19.520083189946945 H 0.0 **** 0.06
20916 C 19.456325330142647 78.36414105588506 161.4694411767729 C 0.0 **** -0.24
20917 H 18.673252168081248 77.68299825482933 161.13407401213215 H 0.0 **** 0.06
20918 H 19.142542518649414 79.3929169838469 161.2924817923929 H 0.0 **** 0.06
20919 H 20.37297458710009 78.16350548829689 160.9146315700881 H 0.0 **** 0.06
20920 H 19.636004649236526 78.21534760076554 162.5340284328211 H 0.0 **** 0.06
20921 C 108.18186869393634 75.35871101888638 1.369677145850872 C 0.0 **** -0.24
20922 H 108.1248214853498 76.42853137916731 1.5706029998873205 H 0.0 **** 0.06
20923 H 108.92643745711206 75.17321057285962 0.595205622604773 H 0.0 **** 0.06
20924 H 107.20894060598289 75.00076046449516 1.032253770222347 H 0.0 **** 0.06
20925 H 108.46607511372542 74.83292044253152 2.2817529069367453 H 0.0 **** 0.06
20926 C 157.02048566648125 103.85168197581484 50.42921020447022 C 0.0 **** -0.24
20927 H 155.95344908779447 103.91798612454693 50.64044436392123 H 0.0 **** 0.06
20928 H 157.36118958722142 102.82964147147715 50.60173931916768 H 0.0 **** 0.06
20929 H 157.56357414448038 104.531216513278 51.08604648825673 H 0.0 **** 0.06
20930 H 157.20398412593528 104.12560666087819 49.390269028375656 H 0.0 **** 0.06
20931 C 134.77961874768806 98.16528663461446 161.30572224946815 C 0.0 **** -0.24
20932 H 135.10289917626267 98.21587206936627 162.3455414975282 H 0.0 **** 0.06
20933 H 133.84749989967037 97.60184743570457 161.24329656500822 H 0.0 **** 0.06
20934 H 135.54616806446566 97.6682136084467 160.71076615699047 H 0.0 **** 0.06
20935 H 134.62074711151467 99.17417140444965 160.92488697006456 H 0.0 **** 0.06
20936 C 123.49452786950994 132.04065774345497 141.74457222809016 C 0.0 **** -0.24
20937 H 124.32442816120604 132.08119738306732 142.45092147749227 H 0.0 **** 0.06
20938 H 122.84612538763761 131.20045320339872 141.99444571016662 H 0.0 **** 0.06
20939 H 123.88368476303839 131.9137181315969 140.73482899080423 H 0.0 **** 0.06
20940 H 122.92561058456016 132.9686818670294 141.8009152229131 H 0.0 **** 0.06
20941 C 8.688079297071852 144.3739515552261 41.10828426668081 C 0.0 **** -0.24
20942 H 9.214252019558813 143.96854531491664 40.24481556731041 H 0.0 **** 0.06
20943 H 9.392682415158674 144.52070648556253 41.92790592838821 H 0.0 **** 0.06
20944 H 7.908597006487042 143.6779217679234 41.41820696488492 H 0.0 **** 0.06
20945 H 8.23643055365369 145.33000142592334 40.84222738944004 H 0.0 **** 0.06
20946 C 117.87861974249623 25.090595649003504 9.443385488636572 C 0.0 **** -0.24
20947 H 117.32186978923357 24.911575066313397 10.36355141003311 H 0.0 **** 0.06
20948 H 117.63693898050502 26.081420403462275 9.060084208669906 H 0.0 **** 0.06
20949 H 117.6082324080923 24.33797927684158 8.70314940895394 H 0.0 **** 0.06
20950 H 118.94774162108462 25.029911894458216 9.65017309401793 H 0.0 **** 0.06
20951 C 53.691082366642036 109.68850078216852 142.40196857250464 C 0.0 **** -0.24
20952 H 53.724355049148116 110.3052839786227 141.50336764461787 H 0.0 **** 0.06
20953 H 52.662178206657956 109.6198922448392 142.75723090369672 H 0.0 **** 0.06
20954 H 54.312509156950654 110.1398923821217 143.17483371525535 H 0.0 **** 0.06
20955 H 54.064272153209686 108.69061007844425 142.17203878613313 H 0.0 **** 0.06
20956 C 87.0795373107544 91.92248807473521 2.6923239287243845 C 0.0 **** -0.24
20957 H 87.05421794509745 92.49171129050856 1.7635715283525926 H 0.0 **** 0.06
20958 H 87.96718397335934 91.29112349674647 2.7068951082802712 H 0.0 **** 0.06
20959 H 86.18805070722549 91.29883146609458 2.7598091817159442 H 0.0 **** 0.06
20960 H 87.10686859931425 92.60950122201908 3.538593474195615 H 0.0 **** 0.06
20961 C 29.236345595988567 14.966213150082623 120.86916476731028 C 0.0 **** -0.24
20962 H 30.308234492911524 14.839210945248645 120.71549357920316 H 0.0 **** 0.06
20963 H 28.892475277022 14.261281090592767 121.62669906110787 H 0.0 **** 0.06
20964 H 28.71108676614206 14.780580702604802 119.93313811361375 H 0.0 **** 0.06
20965 H 29.03601923405128 15.98532204222947 121.20263238235336 H 0.0 **** 0.06
20966 C 112.55169483189889 52.17866176559316 6.609054494992584 C 0.0 **** -0.24
20967 H 112.42953725384123 51.47306794877248 5.786918804685243 H 0.0 **** 0.06
20968 H 111.62380377531082 52.23974904099441 7.176619188866049 H 0.0 **** 0.06
20969 H 112.7996438495536 53.16183894430276 6.210083214886161 H 0.0 **** 0.06
20970 H 113.35579973331579 51.838720584508806 7.261992850653286 H 0.0 **** 0.06
20971 C 80.8446066710897 5.725061635450373 164.07826046983783 C 0.0 **** -0.24
20972 H 80.694072440143 4.66514298234523 164.28075010131732 H 0.0 **** 0.06
20973 H 79.91164187551642 6.263468075567772 164.24536936860417 H 0.0 **** 0.06
20974 H 81.1588670852423 5.856354450533843 163.04231896391107 H 0.0 **** 0.06
20975 H 81.61407562585228 6.1162115218515964 164.74316080303578 H 0.0 **** 0.06
20976 C 145.80981625551655 135.48225359848703 2.04578238348617 C 0.0 **** -0.24
20977 H 145.73766412549588 134.65640603037315 2.7529768606220273 H 0.0 **** 0.06
20978 H 146.26001993908156 136.34348625040394 2.53944436067988 H 0.0 **** 0.06
20979 H 144.81320881579876 135.74547964439563 1.6923551265362278 H 0.0 **** 0.06
20980 H 146.42775957416143 135.1830003260523 1.200145538045689 H 0.0 **** 0.06
20981 C 110.53916072962255 55.46279859057388 15.042048893062514 C 0.0 **** -0.24
20982 H 109.4987326200295 55.58308817848642 14.73905224721645 H 0.0 **** 0.06
20983 H 110.95280247137023 56.434067292896785 15.314180872077031 H 0.0 **** 0.06
20984 H 111.11137024811316 55.04144823437177 14.21574972272711 H 0.0 **** 0.06
20985 H 110.59165952097445 54.79182273502228 15.900257784807252 H 0.0 **** 0.06
20986 C 12.038958053125413 25.089447223447962 157.00546078757586 C 0.0 **** -0.24
20987 H 12.409117449374747 25.009485744575272 158.02764930897231 H 0.0 **** 0.06
20988 H 11.759393361909531 24.10063748688566 156.64304797137106 H 0.0 **** 0.06
20989 H 12.81998992885957 25.50431032165062 156.36810059837813 H 0.0 **** 0.06
20990 H 11.167760454001183 25.744493093724856 156.98492187287644 H 0.0 **** 0.06
20991 C 99.78575362625568 27.914907386829753 36.72484396722379 C 0.0 **** -0.24
20992 H 99.69057775596386 26.829085364378166 36.73612567283294 H 0.0 **** 0.06
20993 H 99.0263816924253 28.338609143668734 36.06667886086237 H 0.0 **** 0.06
20994 H 100.7761194363521 28.18805466090629 36.36082293832328 H 0.0 **** 0.06
20995 H 99.64898554649861 28.302425170338623 37.73402215906111 H 0.0 **** 0.06
20996 C 103.44676608262506 31.435662200915445 135.88325778386948 C 0.0 **** -0.24
20997 H 103.51509685376666 30.701892180069848 136.68588261818797 H 0.0 **** 0.06
20998 H 102.4222924177945 31.47641383192216 135.51382282597655 H 0.0 **** 0.06
20999 H 104.11512499792849 31.147855049632497 135.0713756462341 H 0.0 **** 0.06
21000 H 103.73612916688549 32.415975630845224 136.26145582796164 H 0.0 **** 0.06
21001 C 142.95624703642227 115.51023023673494 9.864469993414389 C 0.0 **** -0.24
21002 H 142.03721200291037 114.95308718881299 10.049849206294084 H 0.0 **** 0.06
21003 H 142.92092007340474 116.45749766855909 10.40284589551095 H 0.0 **** 0.06
21004 H 143.0549913832353 115.70250935402757 8.796261927857273 H 0.0 **** 0.06
21005 H 143.80978907633875 114.92703721864996 10.209956711197918 H 0.0 **** 0.06
21006 C 34.44456038234246 144.85008753993583 110.36119791049413 C 0.0 **** -0.24
21007 H 33.41949964997653 144.71636394897138 110.01602161909886 H 0.0 **** 0.06
21008 H 34.53729439108527 144.4673000094324 111.37818479882858 H 0.0 **** 0.06
21009 H 34.69737627988458 145.91068720421964 110.3480951238098 H 0.0 **** 0.06
21010 H 35.123314256269126 144.30705650572907 109.70456588119313 H 0.0 **** 0.06
21011 C 12.784324041193408 6.49515919068665 33.3455917505828 C 0.0 **** -0.24
21012 H 12.468284195061415 5.620975044186366 32.777282812238695 H 0.0 **** 0.06
21013 H 12.682365408548634 7.387318073808501 32.72756330860585 H 0.0 **** 0.06
21014 H 13.826482490806285 6.376339633910675 33.6439956649329 H 0.0 **** 0.06
21015 H 12.162011397066586 6.595703020542828 34.234748706859875 H 0.0 **** 0.06
21016 C 16.354964838760594 106.24821952390698 64.54225001531309 C 0.0 **** -0.24
21017 H 16.87397935913748 106.57921002932889 63.64256428945406 H 0.0 **** 0.06
21018 H 15.849161018701807 105.30298424715284 64.3418529337415 H 0.0 **** 0.06
21019 H 15.619878099366133 106.9978807293434 64.83478675251399 H 0.0 **** 0.06
21020 H 17.07559077353335 106.11146126729423 65.34817222619631 H 0.0 **** 0.06
21021 C 77.22345916689922 152.48198018528436 154.0792878660445 C 0.0 **** -0.24
21022 H 76.92433890209215 152.69674302745338 153.0533370018492 H 0.0 **** 0.06
21023 H 76.34702616375422 152.51580075435507 154.72735235174724 H 0.0 **** 0.06
21024 H 77.94860888518666 153.22467232485454 154.40827021932924 H 0.0 **** 0.06
21025 H 77.67124317113841 151.48971049174096 154.12615473706722 H 0.0 **** 0.06
21026 C 148.2073644406898 74.19335903485882 135.51953918780032 C 0.0 **** -0.24
21027 H 149.2125804646012 73.78070129188018 135.59900294266063 H 0.0 **** 0.06
21028 H 147.47734781950538 73.38635959962426 135.58652310298717 H 0.0 **** 0.06
21029 H 148.09794544399494 74.70402344206576 134.56232627696878 H 0.0 **** 0.06
21030 H 148.04092251737234 74.90198334063896 136.33095761783008 H 0.0 **** 0.06
21031 C 107.78447065146307 101.63195938410553 78.8893208653202 C 0.0 **** -0.24
21032 H 107.69881770537236 100.62914855443813 79.30701953564505 H 0.0 **** 0.06
21033 H 107.23271029714724 102.3339136018977 79.51645325867418 H 0.0 **** 0.06
21034 H 107.36953645136077 101.64244239846099 77.88139829715942 H 0.0 **** 0.06
21035 H 108.83359998424726 101.92284078690142 78.85425245712247 H 0.0 **** 0.06
21036 C 36.48139660543899 172.77166322763387 144.77257259761402 C 0.0 **** -0.24
21037 H 37.09405344355713 172.3582766976405 145.57345045826992 H 0.0 **** 0.06
21038 H 36.32465225623747 172.0122714218275 144.00604634302795 H 0.0 **** 0.06
21039 H 36.98888146471495 173.6319147265707 144.33449988708384 H 0.0 **** 0.06
21040 H 35.51912445642557 173.08495740027954 145.17591267915122 H 0.0 **** 0.06
21041 C 113.55431186626842 20.634547239397598 71.08165975191187 C 0.0 **** -0.24
21042 H 113.62757642215323 20.210697711189283 72.08351607139893 H 0.0 **** 0.06
21043 H 113.92776244106724 21.65869676500722 71.0931320192145 H 0.0 **** 0.06
21044 H 112.51370436534893 20.62929011563166 70.75953006314565 H 0.0 **** 0.06
21045 H 114.1512197084144 20.038095350115043 70.3918472041973 H 0.0 **** 0.06
21046 C 143.76661024561503 48.5654930809182 28.231676896075385 C 0.0 **** -0.24
21047 H 143.126767828563 48.65944660679642 27.354680556136913 H 0.0 **** 0.06
21048 H 143.14831193973657 48.49862633462351 29.127070797744977 H 0.0 **** 0.06
21049 H 144.41524306047145 49.439366124778246 28.302221879703097 H 0.0 **** 0.06
21050 H 144.3760579485939 47.66697961169308 28.14262529120873 H 0.0 **** 0.06
21051 C 82.69691911666746 125.45589464748679 122.03040119195015 C 0.0 **** -0.24
21052 H 82.64489751154166 125.72714883141663 120.97570259932357 H 0.0 **** 0.06
21053 H 82.03188502485061 124.61436693928175 122.2223150653829 H 0.0 **** 0.06
21054 H 82.39218543089224 126.30700053437334 122.63951722330395 H 0.0 **** 0.06
21055 H 83.71962901306473 125.17587011646236 122.28284507511623 H 0.0 **** 0.06
21056 C 129.28861632833565 145.71139931623023 167.54698084486603 C 0.0 **** -0.24
21057 H 129.88924431841707 146.28436899921704 166.8401704320686 H 0.0 **** 0.06
21058 H 128.3286106427327 146.2073838429247 167.6921553406975 H 0.0 **** 0.06
21059 H 129.8122275698523 145.64630371794354 168.50016549861812 H 0.0 **** 0.06
21060 H 129.12310666080737 144.70843401903204 167.15417766983654 H 0.0 **** 0.06
21061 C 104.5748488035903 59.46074369936396 68.48513555345914 C 0.0 **** -0.24
21062 H 104.65453773787516 60.37875361417646 69.06671928222141 H 0.0 **** 0.06
21063 H 104.20502627073503 59.695415328125165 67.48666686353084 H 0.0 **** 0.06
21064 H 103.88460966191786 58.777069961401196 68.97804761054658 H 0.0 **** 0.06
21065 H 105.55650039720058 58.9931748589938 68.40759383524443 H 0.0 **** 0.06
21066 C 96.77052730347702 35.032879873085164 43.94941674385353 C 0.0 **** -0.24
21067 H 96.38478751118049 35.470689869412 43.02839208451121 H 0.0 **** 0.06
21068 H 97.15204087837787 34.03302420602816 43.7429144029864 H 0.0 **** 0.06
21069 H 95.96915461660211 34.97117260698505 44.68534962198396 H 0.0 **** 0.06
21070 H 97.57481409849436 35.655732988275616 44.33867229504864 H 0.0 **** 0.06
21071 C 117.25648849447674 61.978014991384214 4.640449278693552 C 0.0 **** -0.24
21072 H 117.07004560346792 62.45411365627916 5.603228745816125 H 0.0 **** 0.06
21073 H 117.3162310084353 60.897550526556245 4.774518592417905 H 0.0 **** 0.06
21074 H 118.19636493783688 62.3459161545245 4.229061157338009 H 0.0 **** 0.06
21075 H 116.44269616560555 62.21518145502648 3.954631285379918 H 0.0 **** 0.06
21076 C 53.34802825978227 84.52191827002974 141.9777094129302 C 0.0 **** -0.24
21077 H 53.093235928867244 84.71374325518798 143.0201902227298 H 0.0 **** 0.06
21078 H 53.429046456074104 83.44621001835975 141.81644553195497 H 0.0 **** 0.06
21079 H 54.29938193334283 84.99849638978179 141.74208968151322 H 0.0 **** 0.06
21080 H 52.568654280706696 84.92862848193857 141.33330644195598 H 0.0 **** 0.06
21081 C 159.81812480770577 63.37295152690996 38.44046606522913 C 0.0 **** -0.24
21082 H 160.07564426090403 63.38002162914859 37.380966205698144 H 0.0 **** 0.06
21083 H 160.7188838460766 63.21555913998611 39.03291095649904 H 0.0 **** 0.06
21084 H 159.10849656038792 62.56874826994755 38.636198208082476 H 0.0 **** 0.06
21085 H 159.3668634379836 64.32796035499604 38.710392928824746 H 0.0 **** 0.06
21086 C 32.658331178079465 169.52155822075773 42.28156804230079 C 0.0 **** -0.24
21087 H 31.79834435170119 169.00754090179095 42.710734718221644 H 0.0 **** 0.06
21088 H 33.53654402334287 168.8791940000125 42.34725361286333 H 0.0 **** 0.06
21089 H 32.840926959866664 170.44473243759705 42.831963666118696 H 0.0 **** 0.06
21090 H 32.45695869999197 169.75606038459574 41.23646228857848 H 0.0 **** 0.06
21091 C 141.85618360870632 101.7799062810247 46.85090552527163 C 0.0 **** -0.24
21092 H 141.6671208965257 102.77992876050413 46.463229810290215 H 0.0 **** 0.06
21093 H 141.18698067593618 101.58132871451545 47.68794110638606 H 0.0 **** 0.06
21094 H 142.89086451307537 101.71060208356391 47.18927010439731 H 0.0 **** 0.06
21095 H 141.68223265159662 101.04609810536294 46.0635645407788 H 0.0 **** 0.06
21096 C 128.19070408560393 130.02005239559983 16.738588556407677 C 0.0 **** -0.24
21097 H 128.802982054941 130.24695951285563 17.61133366931304 H 0.0 **** 0.06
21098 H 128.83151889367426 129.92197137948696 15.861642312643227 H 0.0 **** 0.06
21099 H 127.4751578752921 130.82571884416166 16.577252408747654 H 0.0 **** 0.06
21100 H 127.6548796647593 129.08568124369518 16.90426568720892 H 0.0 **** 0.06
21101 C 87.88099498851716 146.91311010572986 24.77545755117403 C 0.0 **** -0.24
21102 H 88.66846391984765 146.9998183573969 25.523479288850275 H 0.0 **** 0.06
21103 H 87.84525818211337 147.82582305588414 24.17999205375505 H 0.0 **** 0.06
21104 H 86.92230364350804 146.76577942501615 25.273066603682437 H 0.0 **** 0.06
21105 H 88.08828544829332 146.06340380700786 24.1257460551385 H 0.0 **** 0.06
21106 C 117.02975979672584 36.78696027722032 45.92699628547638 C 0.0 **** -0.24
21107 H 116.65138500387849 36.11163942680707 46.694574593224104 H 0.0 **** 0.06
21108 H 117.50141474394161 36.2067225829399 45.13400447579215 H 0.0 **** 0.06
21109 H 117.76180416373046 37.46345960168139 46.36872347438427 H 0.0 **** 0.06
21110 H 116.20429957625532 37.36531186250136 45.51279943061692 H 0.0 **** 0.06
21111 C 5.181724679178188 57.216865103631804 62.30395351679023 C 0.0 **** -0.24
21112 H 4.766890793686628 56.4426369307145 61.657949035941726 H 0.0 **** 0.06
21113 H 4.369767725819997 57.76470712270735 62.7823071689445 H 0.0 **** 0.06
21114 H 5.781746192118476 57.90346584290447 61.70726282921204 H 0.0 **** 0.06
21115 H 5.807872224954764 56.75536761460906 63.066572335323784 H 0.0 **** 0.06
21116 C 122.10380070930697 96.26561148380199 162.64163200593873 C 0.0 **** -0.24
21117 H 122.19418136597781 95.19878014882028 162.84894205725107 H 0.0 **** 0.06
21118 H 122.49254899913208 96.83408639888142 163.48754114523575 H 0.0 **** 0.06
21119 H 121.05508248283547 96.51692669092023 162.485232151792 H 0.0 **** 0.06
21120 H 122.67430943922815 96.51055320517247 161.7456769120315 H 0.0 **** 0.06
21121 C 170.85639023024316 109.29292226319666 20.571473111317175 C 0.0 **** -0.24
21122 H 169.87680041418142 109.76425207403719 20.652659275849942 H 0.0 **** 0.06
21123 H 170.91433185635748 108.45222753025399 21.263480585287596 H 0.0 **** 0.06
21124 H 171.63119817362175 110.01970125969075 20.81542213176806 H 0.0 **** 0.06
21125 H 171.0032138624564 108.93477124252041 19.552471219762367 H 0.0 **** 0.06
21126 C 147.6110525708267 15.90886111348032 38.00349124739893 C 0.0 **** -0.24
21127 H 148.08339688479532 16.80935318600126 38.39564944569213 H 0.0 **** 0.06
21128 H 147.12407867911853 15.369485758527972 38.81654959036882 H 0.0 **** 0.06
21129 H 148.36931969862178 15.27129278105761 37.547450891025846 H 0.0 **** 0.06
21130 H 146.86969492942157 16.18443461751373 37.254138694926496 H 0.0 **** 0.06
21131 C 45.132594600937125 165.8932729470743 64.96108457503394 C 0.0 **** -0.24
21132 H 45.16182172497156 166.05013455143742 66.03976081118935 H 0.0 **** 0.06
21133 H 46.142497279063434 165.9666509641765 64.55644342780938 H 0.0 **** 0.06
21134 H 44.50017127773896 166.6517220133752 64.50087819941095 H 0.0 **** 0.06
21135 H 44.72729751959929 164.90441132149252 64.74925182225661 H 0.0 **** 0.06
21136 C 65.36366297732698 48.8068771660532 18.458820205175584 C 0.0 **** -0.24
21137 H 65.83170620474334 49.20148230676324 17.556952417553532 H 0.0 **** 0.06
21138 H 66.10705630174361 48.270093178305046 19.04797255751572 H 0.0 **** 0.06
21139 H 64.55784580996193 48.127466815125274 18.18167864761699 H 0.0 **** 0.06
21140 H 64.95828022867909 49.62999104682075 19.047058715547053 H 0.0 **** 0.06
21141 C 0.8418145969517639 91.91270291156059 84.42230157994895 C 0.0 **** -0.24
21142 H -0.17072579538535138 91.83444101785142 84.8201360401316 H 0.0 **** 0.06
21143 H 1.3682927560568032 92.72225311080177 84.9272484996383 H 0.0 **** 0.06
21144 H 0.7957465189621473 92.12005851942814 83.35316147162011 H 0.0 **** 0.06
21145 H 1.3710872232168185 90.97496929891872 84.58873270044509 H 0.0 **** 0.06
21146 C 155.7523249396611 29.00290660589434 89.85411451838377 C 0.0 **** -0.24
21147 H 156.48127263804895 29.625122112428272 89.33507858876918 H 0.0 **** 0.06
21148 H 156.02506559853978 27.953326679325585 89.73895059904645 H 0.0 **** 0.06
21149 H 154.76375536300537 29.170759392144703 89.42871262365824 H 0.0 **** 0.06
21150 H 155.74192508877834 29.261809026609086 90.91260426747635 H 0.0 **** 0.06
21151 C 103.12745855052682 141.29278798446794 12.36259748816164 C 0.0 **** -0.24
21152 H 103.22880920689178 140.900713913061 13.374951760651236 H 0.0 **** 0.06
21153 H 102.21629466293516 141.88824291458084 12.293488719224676 H 0.0 **** 0.06
21154 H 103.07608658441103 140.46432766435893 11.656313836721438 H 0.0 **** 0.06
21155 H 103.9892991112809 141.91752559403184 12.126841327544987 H 0.0 **** 0.06
21156 C 44.8546572472884 59.49127162344632 163.54776661468443 C 0.0 **** -0.24
21157 H 44.622229190571375 59.324569995684996 164.60030592227778 H 0.0 **** 0.06
21158 H 45.92367426741828 59.67392946520033 163.4373088590002 H 0.0 **** 0.06
21159 H 44.29810955252489 60.35472643457206 163.18455921808638 H 0.0 **** 0.06
21160 H 44.57467051588975 58.61015942886823 162.97065405403407 H 0.0 **** 0.06
21161 C 83.41637783267305 171.37018009281417 78.20418404314785 C 0.0 **** -0.24
21162 H 84.09339991847315 171.87713912896703 78.89041123945583 H 0.0 **** 0.06
21163 H 83.22839749530044 172.0089967128033 77.3411446997743 H 0.0 **** 0.06
21164 H 82.47532511154111 171.1579947621938 78.71178659537445 H 0.0 **** 0.06
21165 H 83.86900002436346 170.43517656490076 77.87260031954715 H 0.0 **** 0.06
21166 C 42.97583355006685 133.69942065519643 158.02452110412952 C 0.0 **** -0.24
21167 H 44.04923904875653 133.58941323013065 157.87102458912102 H 0.0 **** 0.06
21168 H 42.600518413607574 132.84470567868033 158.58893592875333 H 0.0 **** 0.06
21169 H 42.47377669287425 133.7456926998796 157.0579922619308 H 0.0 **** 0.06
21170 H 42.77963938493963 134.61646689867771 158.58007958183325 H 0.0 **** 0.06
21171 C 134.51060553318115 13.728295387486924 109.75354230533077 C 0.0 **** -0.24
21172 H 135.39246937193553 13.131468343064569 109.52173458216754 H 0.0 **** 0.06
21173 H 133.96606123116715 13.268209203285693 110.57778157679562 H 0.0 **** 0.06
21174 H 133.86620821762966 13.779805681410608 108.87565792356565 H 0.0 **** 0.06
21175 H 134.81799901528106 14.735695315207806 110.03803989538696 H 0.0 **** 0.06
21176 C 107.70344579482673 38.93847921816297 96.26020599985569 C 0.0 **** -0.24
21177 H 106.91686449518227 39.449858730535254 95.70540510207428 H 0.0 **** 0.06
21178 H 108.31803028320871 39.672374582911914 96.78052864583773 H 0.0 **** 0.06
21179 H 108.32376951536264 38.37021998381894 95.56662173803639 H 0.0 **** 0.06
21180 H 107.25462887880411 38.259557759403265 96.98464522302635 H 0.0 **** 0.06
21181 C 114.94432260677021 120.26388849256014 93.77981455871773 C 0.0 **** -0.24
21182 H 113.88144235419256 120.11782951595859 93.9757598737248 H 0.0 **** 0.06
21183 H 115.28584204907418 121.16713139217438 94.2854962001565 H 0.0 **** 0.06
21184 H 115.10450959739299 120.365029383792 92.70662779972622 H 0.0 **** 0.06
21185 H 115.50317961647508 119.40544370703643 94.15216059669754 H 0.0 **** 0.06
21186 C 165.1214858598786 128.92090268119406 54.002726766205285 C 0.0 **** -0.24
21187 H 165.8921006643626 129.66245531974667 53.794326510527554 H 0.0 **** 0.06
21188 H 164.6094193421907 129.18049698434515 54.92969703856349 H 0.0 **** 0.06
21189 H 165.58044682668293 127.93818789293397 54.10496484743682 H 0.0 **** 0.06
21190 H 164.40261053494254 128.90375682369296 53.18349329823262 H 0.0 **** 0.06
21191 C 24.24335428658503 55.73710005157278 102.73262521265573 C 0.0 **** -0.24
21192 H 25.00143124552639 55.739044565426866 103.51532164534305 H 0.0 **** 0.06
21193 H 23.603641654241443 56.61231828656213 102.84437029608347 H 0.0 **** 0.06
21194 H 23.64002775783186 54.83274373065427 102.81405579952076 H 0.0 **** 0.06
21195 H 24.729198539869316 55.76334881856434 101.75732703042252 H 0.0 **** 0.06
21196 C 81.13632565800309 91.71685397356052 171.99786395265602 C 0.0 **** -0.24
21197 H 81.77104802661819 91.40461337383528 172.8269305946986 H 0.0 **** 0.06
21198 H 81.45889641836601 91.21649119845671 171.08456039138056 H 0.0 **** 0.06
21199 H 81.21214217663633 92.79666446244059 171.86769727174942 H 0.0 **** 0.06
21200 H 80.10115820469274 91.44893040600306 172.21276981740385 H 0.0 **** 0.06
21201 C 122.89198857091594 60.940510142633755 149.16258008691852 C 0.0 **** -0.24
21202 H 123.62181392188512 60.97873523115183 149.97162149507983 H 0.0 **** 0.06
21203 H 122.17622081242811 61.75423713606099 149.28061435993732 H 0.0 **** 0.06
21204 H 122.36561274828233 59.98555409559161 149.19435555236393 H 0.0 **** 0.06
21205 H 123.40440814914177 61.04165792178739 148.20608362789434 H 0.0 **** 0.06
21206 C 116.55928073305341 127.4603963777015 94.8417932079335 C 0.0 **** -0.24
21207 H 117.40600012646632 127.62273400922697 94.17565214381574 H 0.0 **** 0.06
21208 H 115.80599731737775 126.8575207643716 94.33212336683641 H 0.0 **** 0.06
21209 H 116.12747640984887 128.4210367388007 95.12097286985488 H 0.0 **** 0.06
21210 H 116.89624839898735 126.93843859521868 95.73765260704246 H 0.0 **** 0.06
21211 C 132.14969284265393 136.39279013278406 62.50482155845738 C 0.0 **** -0.24
21212 H 132.23588504629055 136.8146115960376 61.50296340005639 H 0.0 **** 0.06
21213 H 131.09974892869826 136.35776920808925 62.79441693109001 H 0.0 **** 0.06
21214 H 132.7017385640374 137.0154777038259 63.20939442065645 H 0.0 **** 0.06
21215 H 132.563327082821 135.38435541977432 62.51023717287228 H 0.0 **** 0.06
21216 C 22.472460203061786 61.27281638925018 115.71985922047776 C 0.0 **** -0.24
21217 H 23.199658145142457 61.58200404541742 116.4705098218871 H 0.0 **** 0.06
21218 H 22.668540402963934 61.79877826552024 114.78539902847928 H 0.0 **** 0.06
21219 H 21.467239969578763 61.51276442897182 116.06868073731192 H 0.0 **** 0.06
21220 H 22.553695363137187 60.19833828472011 115.55769628689751 H 0.0 **** 0.06
21221 C 109.55516667704887 35.36068673592439 95.5053538290554 C 0.0 **** -0.24
21222 H 108.76473260485147 35.365215324351766 94.75547408726666 H 0.0 **** 0.06
21223 H 110.33832246810314 36.060079019697866 95.21136973443873 H 0.0 **** 0.06
21224 H 109.97435818419427 34.358487299425065 95.58614314967727 H 0.0 **** 0.06
21225 H 109.14267619449046 35.66088085503333 96.46942712624409 H 0.0 **** 0.06
21226 C 121.47924089545168 12.659727012277244 1.6707698072393953 C 0.0 **** -0.24
21227 H 121.37800432342988 13.230706821958904 0.7480469957968694 H 0.0 **** 0.06
21228 H 120.74770490705572 11.85065258707803 1.679482167625082 H 0.0 **** 0.06
21229 H 121.30719779067726 13.314757746268185 2.523789175408524 H 0.0 **** 0.06
21230 H 122.4838958498737 12.240364566558696 1.73031613007646 H 0.0 **** 0.06
21231 C 100.40001484870879 124.35914402353166 7.447317853075901 C 0.0 **** -0.24
21232 H 99.44542294910212 124.01073108195945 7.840196818316713 H 0.0 **** 0.06
21233 H 101.1655777489838 124.26837084577173 8.217900010616006 H 0.0 **** 0.06
21234 H 100.31008891595565 125.40247902152086 7.14570787369513 H 0.0 **** 0.06
21235 H 100.67980496634075 123.75467917387974 6.58437004049307 H 0.0 **** 0.06
21236 C 33.362817469435115 64.14981026531402 16.647802959418698 C 0.0 **** -0.24
21237 H 34.02825707373138 63.336614302303005 16.93849980796176 H 0.0 **** 0.06
21238 H 33.41195607067826 64.94334186124937 17.393909659646056 H 0.0 **** 0.06
21239 H 32.34056074578551 63.77701467406824 16.582161292208298 H 0.0 **** 0.06
21240 H 33.669342146234555 64.54270490382514 15.678506511594264 H 0.0 **** 0.06
21241 C 88.00381580621053 7.102592588607848 25.227384466563258 C 0.0 **** -0.24
21242 H 88.99647395618095 7.2022906515382275 25.667307527137197 H 0.0 **** 0.06
21243 H 87.26060833021961 7.510974083979022 25.91260443302488 H 0.0 **** 0.06
21244 H 87.79135297465677 6.049840632218654 25.045189496276585 H 0.0 **** 0.06
21245 H 87.96793691407971 7.649204616263198 24.284526997023356 H 0.0 **** 0.06
21246 C 46.22430978803294 118.60962915833619 127.64842697044543 C 0.0 **** -0.24
21247 H 45.82749075696269 118.68437310486144 126.635534967719 H 0.0 **** 0.06
21248 H 46.399730792604544 117.56129691285287 127.89331307673461 H 0.0 **** 0.06
21249 H 45.506896658618714 119.03259412554533 128.3514192991701 H 0.0 **** 0.06
21250 H 47.163249655024856 119.16032803634573 127.71203420175263 H 0.0 **** 0.06
21251 C 90.13548421763917 119.49350541133711 167.52634523365376 C 0.0 **** -0.24
21252 H 90.66988341274975 118.6244913764468 167.91175453053705 H 0.0 **** 0.06
21253 H 89.85501354376711 119.31546057440832 166.48750623621686 H 0.0 **** 0.06
21254 H 90.778692939817 120.37131998876089 167.5845713464203 H 0.0 **** 0.06
21255 H 89.23751344171424 119.66045497040145 168.12134987192832 H 0.0 **** 0.06
21256 C 171.9593305737775 36.131444298295634 59.63558984762685 C 0.0 **** -0.24
21257 H 171.87995241746552 37.160495977370346 59.28537430052165 H 0.0 **** 0.06
21258 H 171.01933717997207 35.83196510745506 60.099585356069014 H 0.0 **** 0.06
21259 H 172.7655217882002 36.05752950664095 60.365405928987684 H 0.0 **** 0.06
21260 H 172.1735714955934 35.476788941300754 58.79106076890005 H 0.0 **** 0.06
21261 C 59.23919148547108 99.9233967130667 99.80472469334913 C 0.0 **** -0.24
21262 H 58.97364551195825 98.94343701303751 99.40607252219843 H 0.0 **** 0.06
21263 H 60.10513103058915 100.31051402887852 99.26663631299209 H 0.0 **** 0.06
21264 H 59.479383786547174 99.83121161242616 100.86328064956456 H 0.0 **** 0.06
21265 H 58.399094355653546 100.60530303457611 99.67990595707948 H 0.0 **** 0.06
21266 C 9.410353001425847 63.605548050848725 160.21900200718102 C 0.0 **** -0.24
21267 H 9.466348954507339 62.57118102487688 159.87658916405024 H 0.0 **** 0.06
21268 H 10.260706949186329 64.16338680498372 159.82703483004616 H 0.0 **** 0.06
21269 H 9.430628112832494 63.62944123451713 161.3079391877954 H 0.0 **** 0.06
21270 H 8.484633202770112 64.05567199089815 159.8620209890417 H 0.0 **** 0.06
21271 C 39.35182979352027 106.30088012321409 2.081103594760748 C 0.0 **** -0.24
21272 H 38.93679362203102 105.29337980164175 2.1061487309104905 H 0.0 **** 0.06
21273 H 39.61961178125068 106.608119594583 3.0921994893806186 H 0.0 **** 0.06
21274 H 38.609307841215525 106.98941594755641 1.676575745538912 H 0.0 **** 0.06
21275 H 40.24025723637811 106.31219803378033 1.449614266501925 H 0.0 **** 0.06
21276 C 87.29281143749773 170.04760786194925 33.543546003797516 C 0.0 **** -0.24
21277 H 86.63372642877414 169.35545109587503 33.019752017599316 H 0.0 **** 0.06
21278 H 86.72634252437031 170.5764941815492 34.31163225232575 H 0.0 **** 0.06
21279 H 87.70199955133172 170.76696726052327 32.8348625050063 H 0.0 **** 0.06
21280 H 88.1063084477474 169.49261145541894 34.010076570666726 H 0.0 **** 0.06
21281 C 28.625526465944233 94.28245311659148 159.47374708824475 C 0.0 **** -0.24
21282 H 29.158137823694915 93.33503136778245 159.39911920086976 H 0.0 **** 0.06
21283 H 29.255792592004298 95.08399254029013 159.0878463729344 H 0.0 **** 0.06
21284 H 28.38380846630929 94.4814147623085 160.5178835069581 H 0.0 **** 0.06
21285 H 27.70644941803255 94.23018660383059 158.89019351491916 H 0.0 **** 0.06
21286 C 128.97615677226366 44.96266675946748 153.1037229592955 C 0.0 **** -0.24
21287 H 129.19798188196333 44.25260723257827 152.30796594073007 H 0.0 **** 0.06
21288 H 129.63892354790508 44.779730807378314 153.9496643463038 H 0.0 **** 0.06
21289 H 127.94024366364499 44.84173978250715 153.4203345182981 H 0.0 **** 0.06
21290 H 129.1269567373126 45.978202578006204 152.73728119957224 H 0.0 **** 0.06
21291 C 98.58294456226997 0.6886063843672332 24.818123611880026 C 0.0 **** -0.24
21292 H 99.57975972250892 0.763298076301794 24.38370115848437 H 0.0 **** 0.06
21293 H 98.41320230512775 -0.33061140090353547 25.16565471195858 H 0.0 **** 0.06
21294 H 97.83841439284447 0.9444330118226958 24.063738584235892 H 0.0 **** 0.06
21295 H 98.49990434438155 1.377959713351288 25.658248894079293 H 0.0 **** 0.06
21296 C 100.00308587591309 154.21100187540236 17.385897329329588 C 0.0 **** -0.24
21297 H 100.20451896480296 154.72032930946273 16.442585870277497 H 0.0 **** 0.06
21298 H 100.82234226956513 154.39824982518982 18.081212651017545 H 0.0 **** 0.06
21299 H 99.91453711720479 153.13980080233122 17.207870553872233 H 0.0 **** 0.06
21300 H 99.07275557147412 154.58848975146975 17.81032943759613 H 0.0 **** 0.06
21301 C 8.9172819586827 95.68548971583303 112.10542273801548 C 0.0 **** -0.24
21302 H 9.50090603147926 94.86872022848698 112.53051301124327 H 0.0 **** 0.06
21303 H 9.334165063204068 96.63873710648303 112.43194701274984 H 0.0 **** 0.06
21304 H 7.8834133500730985 95.60662388250765 112.44191207189772 H 0.0 **** 0.06
21305 H 8.95064338997436 95.62787764585445 111.01731885617102 H 0.0 **** 0.06
21306 C 66.26983407027707 33.49404661014208 134.86299906817672 C 0.0 **** -0.24
21307 H 66.28638940987828 33.96152749517421 135.84736775889579 H 0.0 **** 0.06
21308 H 65.38549975753446 33.827351395970425 134.31852503789491 H 0.0 **** 0.06
21309 H 66.24041086991683 32.41038559331864 134.9764858951786 H 0.0 **** 0.06
21310 H 67.16595504820452 33.77783526972479 134.31161684108906 H 0.0 **** 0.06
21311 C 39.84507650715702 105.65645724083942 8.307441680706006 C 0.0 **** -0.24
21312 H 38.8749982021469 105.88034696955407 8.75130614099217 H 0.0 **** 0.06
21313 H 39.791812662776735 104.70157282353563 7.783402627035343 H 0.0 **** 0.06
21314 H 40.59854371114022 105.59853404720371 9.092527180710448 H 0.0 **** 0.06
21315 H 40.11224594065689 106.44382546131038 7.603059009910822 H 0.0 **** 0.06
21316 C 82.82831173464064 53.95365618502187 31.093037119743883 C 0.0 **** -0.24
21317 H 83.78297186217242 53.52792274952529 30.78294312297328 H 0.0 **** 0.06
21318 H 82.90377527008275 55.04148295072869 31.10683566178676 H 0.0 **** 0.06
21319 H 82.57650224336936 53.59434382011055 32.09016988563195 H 0.0 **** 0.06
21320 H 82.05074646838727 53.65268923078999 30.39112806041544 H 0.0 **** 0.06
21321 C 107.77438942917857 71.2840223351897 160.61851723134205 C 0.0 **** -0.24
21322 H 108.62555467293976 71.64278231068789 161.19723580968156 H 0.0 **** 0.06
21323 H 107.22615191729321 72.13555678057942 160.21409302891897 H 0.0 **** 0.06
21324 H 107.11764893035894 70.7005548748659 161.26281901658533 H 0.0 **** 0.06
21325 H 108.13038940107984 70.65916658797174 159.79934600166126 H 0.0 **** 0.06
21326 C 82.93492061846285 86.31508284104592 135.19414723717085 C 0.0 **** -0.24
21327 H 82.56970739700978 85.32389842351515 134.92446603466857 H 0.0 **** 0.06
21328 H 84.0253428224778 86.30805052675082 135.21076600079283 H 0.0 **** 0.06
21329 H 82.5579747847488 86.58519028448272 136.18071350439988 H 0.0 **** 0.06
21330 H 82.58755174208997 87.04276320558608 134.4605156238281 H 0.0 **** 0.06
21331 C 98.3176821852174 84.18271433631145 68.44365630437187 C 0.0 **** -0.24
21332 H 98.78127733629839 83.43316721039372 67.80120952416749 H 0.0 **** 0.06
21333 H 97.99366529487187 85.03028692650042 67.83841834440081 H 0.0 **** 0.06
21334 H 99.04042348733572 84.52104479518141 69.18599294619293 H 0.0 **** 0.06
21335 H 97.45604695428582 83.74548233364294 68.94734178845688 H 0.0 **** 0.06
21336 C 23.956722401512728 121.18864727447192 138.2447175124576 C 0.0 **** -0.24
21337 H 24.14547488849341 120.2478384634606 137.72930465151586 H 0.0 **** 0.06
21338 H 24.674417343296838 121.30804677500797 139.05659799979117 H 0.0 **** 0.06
21339 H 22.94528685304634 121.184568136329 138.65056066746484 H 0.0 **** 0.06
21340 H 24.062145208391726 122.01573381095278 137.54189953677863 H 0.0 **** 0.06
21341 C 111.08021436612358 17.560528530025977 46.158592017964196 C 0.0 **** -0.24
21342 H 111.51807162814589 18.448473917062643 46.616204554820996 H 0.0 **** 0.06
21343 H 111.86453575398724 16.98025683879942 45.67228047429249 H 0.0 **** 0.06
21344 H 110.33884270156744 17.861763999779157 45.41953289357852 H 0.0 **** 0.06
21345 H 110.60200097498313 16.954156278269437 46.927265424294305 H 0.0 **** 0.06
21346 C 72.59472701791185 110.1330399782901 47.25587115788021 C 0.0 **** -0.24
21347 H 73.25950322167927 109.53616348527544 46.632314259469055 H 0.0 **** 0.06
21348 H 72.23694317091855 109.52750982123155 48.08863651183364 H 0.0 **** 0.06
21349 H 71.74588756744095 110.47087513014708 46.661092887057336 H 0.0 **** 0.06
21350 H 73.1365099623016 110.99718987543432 47.64053644823878 H 0.0 **** 0.06
21351 C 140.70720990645117 44.633320485995284 120.26871270383009 C 0.0 **** -0.24
21352 H 140.9421812051222 45.083128374137004 119.30406793143646 H 0.0 **** 0.06
21353 H 140.52481321983976 45.42004704370272 121.00189958567665 H 0.0 **** 0.06
21354 H 141.5453777639594 44.01835756710119 120.59622214226681 H 0.0 **** 0.06
21355 H 139.8166174660735 44.013018950120966 120.17205727701247 H 0.0 **** 0.06
21356 C 67.01381264783953 12.041988874254542 103.6253953835051 C 0.0 **** -0.24
21357 H 66.56467547488103 11.413608514295106 102.85636930795101 H 0.0 **** 0.06
21358 H 67.5897464632096 11.420717306451962 104.31101922699 H 0.0 **** 0.06
21359 H 66.2285190892473 12.55993241793007 104.17681239704976 H 0.0 **** 0.06
21360 H 67.67230956402028 12.773697258340974 103.1573806020296 H 0.0 **** 0.06
21361 C 152.03339810516192 105.24653000552036 102.60061072284708 C 0.0 **** -0.24
21362 H 151.21512393596797 105.56456257854072 103.24716147066079 H 0.0 **** 0.06
21363 H 152.94275229343404 105.78109852793224 102.87749820022239 H 0.0 **** 0.06
21364 H 151.7835122499545 105.46687255685174 101.56353774562004 H 0.0 **** 0.06
21365 H 152.1917730225515 104.17423486158035 102.71714271573015 H 0.0 **** 0.06
21366 C 73.63410424060964 50.902981265290805 112.38005333927757 C 0.0 **** -0.24
21367 H 74.47996432529703 51.178809421651124 113.00943296914079 H 0.0 **** 0.06
21368 H 73.43162279223738 51.70663240165146 111.67181516679511 H 0.0 **** 0.06
21369 H 72.75519684535138 50.739211458740186 113.00411699327825 H 0.0 **** 0.06
21370 H 73.86909525353207 49.98871559727962 111.83612350436348 H 0.0 **** 0.06
21371 C 27.422507717641366 160.89259612131255 162.92440041399135 C 0.0 **** -0.24
21372 H 27.007777871360553 161.57571029620846 163.6655673048433 H 0.0 **** 0.06
21373 H 28.282745003573936 160.37505965799656 163.34820577992195 H 0.0 **** 0.06
21374 H 27.734399027698927 161.45613597646823 162.0445857457708 H 0.0 **** 0.06
21375 H 26.664076975932957 160.16306898925777 162.63836686616833 H 0.0 **** 0.06
21376 C 104.36376106105126 166.0720878008538 125.42049941416437 C 0.0 **** -0.24
21377 H 103.73863343233177 165.30797137033844 124.95794052290972 H 0.0 **** 0.06
21378 H 104.06790209869064 167.0543454688172 125.05166945145032 H 0.0 **** 0.06
21379 H 105.4073638681295 165.88768651504776 125.16863340131712 H 0.0 **** 0.06
21380 H 104.23901255154072 166.03663426536585 126.50252253174963 H 0.0 **** 0.06
21381 C 158.74642930357032 90.77515793302436 74.72691832780549 C 0.0 **** -0.24
21382 H 157.97041358963767 91.53072215804956 74.60694549347733 H 0.0 **** 0.06
21383 H 158.35226579550852 89.80114217441589 74.43493262589288 H 0.0 **** 0.06
21384 H 159.06388053849318 90.74187264873021 75.76816034169656 H 0.0 **** 0.06
21385 H 159.59866246773083 91.02708622286755 74.09393094953282 H 0.0 **** 0.06
21386 C 13.768788967593238 15.991519992641791 167.80498762924705 C 0.0 **** -0.24
21387 H 13.463598344217687 16.895171381543186 167.27869588803424 H 0.0 **** 0.06
21388 H 14.564379192751936 15.49712170694989 167.24730965584814 H 0.0 **** 0.06
21389 H 12.915828250090478 15.318571327475809 167.89435373829625 H 0.0 **** 0.06
21390 H 14.130156463548445 16.254576019180767 168.79918340865618 H 0.0 **** 0.06
21391 C 127.68383224019883 7.7560850301938515 147.6113289924073 C 0.0 **** -0.24
21392 H 126.82164818467959 7.698064347003047 146.9469424778558 H 0.0 **** 0.06
21393 H 128.16962362498523 6.781615169882336 147.66122294033133 H 0.0 **** 0.06
21394 H 127.35379630445803 8.049284573006801 148.60855741618718 H 0.0 **** 0.06
21395 H 128.38748097328016 8.49434397613058 147.2290485672441 H 0.0 **** 0.06
21396 C 26.961157323258476 43.62112873566946 59.37072239433678 C 0.0 **** -0.24
21397 H 27.948082609009845 43.520156198643235 58.91903974489378 H 0.0 **** 0.06
21398 H 27.014824406106925 44.318163767943645 60.20750027183951 H 0.0 **** 0.06
21399 H 26.622472519740057 42.64886377792914 59.727580377199274 H 0.0 **** 0.06
21400 H 26.258602193616866 43.999442454882 58.62700184681495 H 0.0 **** 0.06
21401 C 88.70966593453927 54.079094829432165 150.13617109404998 C 0.0 **** -0.24
21402 H 88.4180521342942 53.976584332807334 151.18124676796464 H 0.0 **** 0.06
21403 H 89.13698054503972 55.06940596936988 149.973883392591 H 0.0 **** 0.06
21404 H 87.83454967170478 53.95137843961123 149.500184306545 H 0.0 **** 0.06
21405 H 89.45117097351608 53.3188606295721 149.89127026912553 H 0.0 **** 0.06
21406 C 117.51446672391663 69.31587963125071 143.69135684806417 C 0.0 **** -0.24
21407 H 118.11177207336027 68.71680888830025 144.3791204452148 H 0.0 **** 0.06
21408 H 117.6162755404531 68.91810475185858 142.68168101229378 H 0.0 **** 0.06
21409 H 117.86310532278355 70.34874679638051 143.71227935057766 H 0.0 **** 0.06
21410 H 116.46829209440475 69.27908821908201 143.99373111645926 H 0.0 **** 0.06
21411 C 148.88708176096327 78.80116620762499 23.148400613577678 C 0.0 **** -0.24
21412 H 149.2560728574215 79.69362617331663 23.653539165916527 H 0.0 **** 0.06
21413 H 148.00810976278115 79.05711667548593 22.555619196654845 H 0.0 **** 0.06
21414 H 148.61813071019287 78.0487972512874 23.891320887163033 H 0.0 **** 0.06
21415 H 149.66449284537111 78.40518859115431 22.495507131069473 H 0.0 **** 0.06
21416 C 2.8322848925184303 134.5055874072335 43.679945013257466 C 0.0 **** -0.24
21417 H 3.8165280340911067 134.48667974823988 44.14793553009304 H 0.0 **** 0.06
21418 H 2.6935372427790583 135.4562824407949 43.1648807112972 H 0.0 **** 0.06
21419 H 2.0640034035500605 134.3915018451361 44.44517128302154 H 0.0 **** 0.06
21420 H 2.7560094425753903 133.68880050909328 42.962323665177934 H 0.0 **** 0.06
21421 C 59.28086644185487 161.64634948608216 59.62779721557162 C 0.0 **** -0.24
21422 H 59.14054177597899 161.4661513896962 58.56190002319414 H 0.0 **** 0.06
21423 H 60.04743694669726 160.97317816468515 60.01156826355509 H 0.0 **** 0.06
21424 H 58.34297322373979 161.46611651244112 60.15252815041643 H 0.0 **** 0.06
21425 H 59.592416100209434 162.6795192130328 59.78384955209496 H 0.0 **** 0.06
21426 C 85.68153213978883 157.75624343862907 108.30163469335372 C 0.0 **** -0.24
21427 H 86.31700602657156 158.3809314882755 108.92880288874005 H 0.0 **** 0.06
21428 H 84.87815679496151 158.36265891437995 107.88136387834794 H 0.0 **** 0.06
21429 H 85.2544789389089 156.95323116412618 108.90285183495223 H 0.0 **** 0.06
21430 H 86.27574137443327 157.32925951606225 107.49398731426635 H 0.0 **** 0.06
21431 C 69.66325771096405 27.47203903981699 135.30177562474415 C 0.0 **** -0.24
21432 H 68.99601395339113 26.710315084966908 134.8959485355462 H 0.0 **** 0.06
21433 H 70.69781634696776 27.181427600302413 135.11960921542124 H 0.0 **** 0.06
21434 H 69.49550629922805 27.566287811486433 136.37472661242222 H 0.0 **** 0.06
21435 H 69.46240430517946 28.426613847522447 134.81675810502193 H 0.0 **** 0.06
21436 C 2.9994080072858083 22.52047357557217 102.17703131349325 C 0.0 **** -0.24
21437 H 3.800342084963262 23.01121086952503 101.62387608930086 H 0.0 **** 0.06
21438 H 2.690612371357105 23.154624947945877 103.0088969975375 H 0.0 **** 0.06
21439 H 3.355088225635569 21.564707754934147 102.55999531056236 H 0.0 **** 0.06
21440 H 2.150555204396426 22.353524268390743 101.51387142649958 H 0.0 **** 0.06
21441 C 38.614323925752046 140.4911077227121 144.12744216978274 C 0.0 **** -0.24
21442 H 37.921350600436654 141.32713192198514 144.03169928706185 H 0.0 **** 0.06
21443 H 38.305972129020404 139.68494132852356 143.46122064517806 H 0.0 **** 0.06
21444 H 38.61060871918551 140.1325591971551 145.15694270235602 H 0.0 **** 0.06
21445 H 39.61868717259176 140.819259500939 143.8617091566375 H 0.0 **** 0.06
21446 C 109.32091009779717 11.276543274758154 36.593070280347206 C 0.0 **** -0.24
21447 H 109.01343262528144 11.878334880200157 35.73701146667372 H 0.0 **** 0.06
21448 H 108.48929709080554 10.647152982333097 36.910571245797 H 0.0 **** 0.06
21449 H 109.61394426806672 11.933219423715656 37.41221592989683 H 0.0 **** 0.06
21450 H 110.16513067458027 10.648744956884457 36.3104839475327 H 0.0 **** 0.06
21451 C 106.02327346939563 158.63206647537072 26.981114938337434 C 0.0 **** -0.24
21452 H 107.04547563312224 158.87110938873585 27.272932315727772 H 0.0 **** 0.06
21453 H 105.65730233831945 159.38914875627228 26.286753528026814 H 0.0 **** 0.06
21454 H 105.38822343257905 158.61485534201927 27.866551213918044 H 0.0 **** 0.06
21455 H 106.00188235218113 157.65526823419486 26.498915007381044 H 0.0 **** 0.06
21456 C 59.34123345376872 131.1230983514405 135.7750869209514 C 0.0 **** -0.24
21457 H 58.8291211332176 130.89554560484385 136.70969961504932 H 0.0 **** 0.06
21458 H 59.03403490362933 130.4099079768048 135.01003350362487 H 0.0 **** 0.06
21459 H 60.41860577581343 131.05377845121626 135.92647657051535 H 0.0 **** 0.06
21460 H 59.08368688645274 132.13227392254362 135.45695713946608 H 0.0 **** 0.06
21461 C 76.03716717484826 106.20085077522077 36.832479604314756 C 0.0 **** -0.24
21462 H 76.32222910749378 106.92181901608888 36.0665607681226 H 0.0 **** 0.06
21463 H 75.18260332541335 105.62009996223622 36.48458835867916 H 0.0 **** 0.06
21464 H 75.76894039613417 106.7291461342383 37.747711056055124 H 0.0 **** 0.06
21465 H 76.87489587035184 105.5323379883198 37.03105823440205 H 0.0 **** 0.06
21466 C 167.67852871193702 124.50304305504477 90.64858965212599 C 0.0 **** -0.24
21467 H 168.08642853745638 123.6353152870231 90.13086538423246 H 0.0 **** 0.06
21468 H 168.44603155339257 125.27421690680796 90.72428313101267 H 0.0 **** 0.06
21469 H 167.35744683306527 124.21007678013683 91.64899427994737 H 0.0 **** 0.06
21470 H 166.82590543778005 124.8918247391669 90.09257659816737 H 0.0 **** 0.06
21471 C 115.53530292920485 172.1977917592166 66.99783072131459 C 0.0 **** -0.24
21472 H 116.15950695141535 172.8087172811172 66.34612640511841 H 0.0 **** 0.06
21473 H 115.38328511218407 172.7156342034204 67.94501654283499 H 0.0 **** 0.06
21474 H 116.02681740385316 171.2419846889452 67.18059987455905 H 0.0 **** 0.06
21475 H 114.57063986288779 172.02483854579083 66.51930843583693 H 0.0 **** 0.06
21476 C 41.27800988629821 165.39214242411327 42.77992987456338 C 0.0 **** -0.24
21477 H 41.61127767421573 164.41949979724967 42.418291822310835 H 0.0 **** 0.06
21478 H 40.305019956032424 165.62584431813144 42.348012985466994 H 0.0 **** 0.06
21479 H 41.999413879365164 166.15523979634713 42.48527260734761 H 0.0 **** 0.06
21480 H 41.19826446528492 165.36835401897207 43.867086250189345 H 0.0 **** 0.06
21481 C 4.216906966102499 129.32685196354117 105.57660989781783 C 0.0 **** -0.24
21482 H 3.2727962716642764 129.87234468875653 105.58554819263537 H 0.0 **** 0.06
21483 H 5.038014178003692 130.01975008873728 105.75820642126459 H 0.0 **** 0.06
21484 H 4.350783271161134 128.84892574095994 104.60643319684286 H 0.0 **** 0.06
21485 H 4.203326328781031 128.5662810544543 106.35788172611763 H 0.0 **** 0.06
21486 C 80.19586424819326 108.31808480757059 88.82258036652597 C 0.0 **** -0.24
21487 H 80.30131264137042 109.27405951125007 89.33587482179901 H 0.0 **** 0.06
21488 H 79.28853633138903 107.8206323896743 89.16332850268401 H 0.0 **** 0.06
21489 H 81.06007099376765 107.6899575392249 89.04442285739665 H 0.0 **** 0.06
21490 H 80.13712445674776 108.48738967862948 87.74771541486577 H 0.0 **** 0.06
21491 C 115.49697783558136 30.92832716083211 108.88290033348272 C 0.0 **** -0.24
21492 H 116.2945511780714 30.22674791415443 108.63717380622856 H 0.0 **** 0.06
21493 H 115.23170599079401 31.502958346875403 107.99466496301937 H 0.0 **** 0.06
21494 H 115.83712522558426 31.605776420191432 109.66497794361456 H 0.0 **** 0.06
21495 H 114.62406535157044 30.377271407776334 109.23356905378373 H 0.0 **** 0.06
21496 C 111.170154051021 85.18807174765107 136.599878399111 C 0.0 **** -0.24
21497 H 112.12801209577668 85.42228879915362 137.06476605669206 H 0.0 **** 0.06
21498 H 110.38303713453897 85.22397553891486 137.3543100499826 H 0.0 **** 0.06
21499 H 111.21186967414275 84.18918107972368 136.1652067582363 H 0.0 **** 0.06
21500 H 110.95820749995858 85.91755721017392 135.81858153650634 H 0.0 **** 0.06
21501 C 97.0970055256374 104.52756836619344 74.1919461531393 C 0.0 **** -0.24
21502 H 96.22912927394083 104.83513078622914 74.77355280524694 H 0.0 **** 0.06
21503 H 97.9214161526514 105.21599796095805 74.37661608747982 H 0.0 **** 0.06
21504 H 96.8462087376127 104.53868484588736 73.130650428352 H 0.0 **** 0.06
21505 H 97.39174152568296 103.52028385866512 74.48478701828503 H 0.0 **** 0.06
21506 C 44.642095697313124 164.9500508447191 74.30106115754995 C 0.0 **** -0.24
21507 H 44.8462220227436 165.4215919388254 75.26283017890125 H 0.0 **** 0.06
21508 H 44.72206994024094 165.69277415541595 73.5079991436354 H 0.0 **** 0.06
21509 H 43.6351405453658 164.53234302639578 74.30891587622585 H 0.0 **** 0.06
21510 H 45.365058440029074 164.15221434806904 74.12721059040464 H 0.0 **** 0.06
21511 C 166.24139968985622 169.0032111732213 3.8476905321153723 C 0.0 **** -0.24
21512 H 167.12883349578232 168.69069465743755 4.396756842067788 H 0.0 **** 0.06
21513 H 165.36251407290044 168.88780726893225 4.483080360982214 H 0.0 **** 0.06
21514 H 166.1292779400126 168.38552548018362 2.957119783501703 H 0.0 **** 0.06
21515 H 166.343904028291 170.048205328164 3.555671263620077 H 0.0 **** 0.06
21516 C 83.81352917406089 55.73520204527762 93.27346372320457 C 0.0 **** -0.24
21517 H 84.62527907743046 55.156081591907224 92.83188494923584 H 0.0 **** 0.06
21518 H 82.96951401546013 55.07637930308596 93.48077563151188 H 0.0 **** 0.06
21519 H 83.50416059776501 56.51555506408761 92.57859508937065 H 0.0 **** 0.06
21520 H 84.15682523181358 56.19100066703976 94.20243338457391 H 0.0 **** 0.06
21521 C 123.32087252641719 95.1204146563137 98.59705844624048 C 0.0 **** -0.24
21522 H 123.69992586587207 96.09502624070797 98.90590797877383 H 0.0 **** 0.06
21523 H 122.27938276807251 95.02258633019846 98.90405502358755 H 0.0 **** 0.06
21524 H 123.9137335797385 94.33543866039741 99.06654821398928 H 0.0 **** 0.06
21525 H 123.39083900521587 95.03013991746622 97.5133032462432 H 0.0 **** 0.06
21526 C 64.06886782878257 129.6218522947723 32.99720143118884 C 0.0 **** -0.24
21527 H 63.94848385684992 130.70456733410455 33.02777947329801 H 0.0 **** 0.06
21528 H 63.08853554702989 129.14949000522356 32.92915960972539 H 0.0 **** 0.06
21529 H 64.5711737056921 129.28703459525607 33.90447651849135 H 0.0 **** 0.06
21530 H 64.66668512582794 129.3470859649215 32.12762960870384 H 0.0 **** 0.06
21531 C 27.303392140818687 22.877982187472867 11.906927023048276 C 0.0 **** -0.24
21532 H 27.798947561764976 21.909213412076525 11.97187373425053 H 0.0 **** 0.06
21533 H 26.79409785246139 23.089401035861385 12.847397435277792 H 0.0 **** 0.06
21534 H 26.57602912725548 22.858261176012036 11.094931744607074 H 0.0 **** 0.06
21535 H 28.044791911582536 23.651701233713197 11.711122625853413 H 0.0 **** 0.06
21536 C 168.63365739967952 74.71020401720097 29.04500864124998 C 0.0 **** -0.24
21537 H 169.27611871415806 73.92927246536539 29.451881541877242 H 0.0 **** 0.06
21538 H 168.99953059158332 75.68524248024914 29.367484997993188 H 0.0 **** 0.06
21539 H 167.61506574819526 74.56608789677745 29.40372962614424 H 0.0 **** 0.06
21540 H 168.64605393044877 74.65876258659921 27.95578996676886 H 0.0 **** 0.06
21541 C 46.6367430454448 75.506316956386 10.381453143823919 C 0.0 **** -0.24
21542 H 46.9919736540532 76.51027930792023 10.613153356114552 H 0.0 **** 0.06
21543 H 46.328446086174694 75.00861625553247 11.301988444154318 H 0.0 **** 0.06
21544 H 47.438616407786355 74.93641113737488 9.911310959495246 H 0.0 **** 0.06
21545 H 45.78826181599581 75.56970831417425 9.700270848296938 H 0.0 **** 0.06
21546 C 0.05737068963620118 171.31568015179704 51.32167970605033 C 0.0 **** -0.24
21547 H -0.07682158808808026 170.49297217586843 50.619026009519274 H 0.0 **** 0.06
21548 H -0.8953849098954549 171.82574331921842 51.470012333319275 H 0.0 **** 0.06
21549 H 0.7876099118456352 172.0190787950894 50.92150947545777 H 0.0 **** 0.06
21550 H 0.41309297642959564 170.92455394278994 52.2752284185234 H 0.0 **** 0.06
21551 C 68.38540995854285 44.63878663864226 8.129711646345271 C 0.0 **** -0.24
21552 H 68.18025715656296 43.687463337070795 7.6385512902078645 H 0.0 **** 0.06
21553 H 67.55429617054477 45.32317310203287 7.956632899058647 H 0.0 **** 0.06
21554 H 69.3004814212407 45.06806439530098 7.722090496145981 H 0.0 **** 0.06
21555 H 68.50534271591397 44.476806451729274 9.20104620917084 H 0.0 **** 0.06
21556 C 95.64364112290664 2.4392070067690454 10.245126658506358 C 0.0 **** -0.24
21557 H 95.65497859061199 3.4152488606708147 9.759031016223943 H 0.0 **** 0.06
21558 H 94.72478735185874 1.9134395128308839 9.981554024887203 H 0.0 **** 0.06
21559 H 95.6898005967214 2.571075235963214 11.325433196327978 H 0.0 **** 0.06
21560 H 96.50379587244507 1.8580776104071077 9.91174454466308 H 0.0 **** 0.06
21561 C 166.89410937051656 134.9800936511179 140.37284497159425 C 0.0 **** -0.24
21562 H 166.2193241369028 135.10558874004948 141.22003861902323 H 0.0 **** 0.06
21563 H 166.3600824191851 135.1969514908905 139.44797359483897 H 0.0 **** 0.06
21564 H 167.25924420762775 133.9535210841479 140.3497692386818 H 0.0 **** 0.06
21565 H 167.73628666880222 135.66404604475503 140.4761827486449 H 0.0 **** 0.06
21566 C 117.44757618485451 133.38453805113335 45.56737836833227 C 0.0 **** -0.24
21567 H 116.39406695100422 133.33112978055493 45.294101921086764 H 0.0 **** 0.06
21568 H 118.03749085459529 132.80603349393832 44.856444233186096 H 0.0 **** 0.06
21569 H 117.58369498040977 132.97743919769817 46.56906762608939 H 0.0 **** 0.06
21570 H 117.77533599062497 134.4243045974723 45.551061397472495 H 0.0 **** 0.06
21571 C 73.5384116577501 41.22366171529973 139.17383662596097 C 0.0 **** -0.24
21572 H 74.0045803983807 40.71136743148065 140.01529990450078 H 0.0 **** 0.06
21573 H 72.69698354682333 40.63378410357461 138.80975238591998 H 0.0 **** 0.06
21574 H 74.26904051008725 41.34619563514906 138.37356408724312 H 0.0 **** 0.06
21575 H 73.18399352967634 42.20295501379587 139.49449936602946 H 0.0 **** 0.06
21576 C 13.98943130573069 128.75874729895557 37.813712459629784 C 0.0 **** -0.24
21577 H 14.910226117754448 128.3452869677526 38.22589405862824 H 0.0 **** 0.06
21578 H 13.143660665184967 128.15224418013904 38.13648816299957 H 0.0 **** 0.06
21579 H 14.046467669613271 128.75414166524757 36.725223678895304 H 0.0 **** 0.06
21580 H 13.860714704139795 129.78180311873942 38.16651693715258 H 0.0 **** 0.06
21581 C 94.06412970824198 67.50416088854756 24.083596597294672 C 0.0 **** -0.24
21582 H 94.7691121674319 68.28039901181447 24.380477518803843 H 0.0 **** 0.06
21583 H 93.20738666462353 67.51489229406907 24.75906491099562 H 0.0 **** 0.06
21584 H 94.55354370754051 66.53143480279842 24.132187582808683 H 0.0 **** 0.06
21585 H 93.72605645528188 67.69072254530487 23.064438415296877 H 0.0 **** 0.06
21586 C 138.64639384521314 25.761188934603524 69.56923178145001 C 0.0 **** -0.24
21587 H 139.30229459401798 25.98761395870679 68.72888001642474 H 0.0 **** 0.06
21588 H 138.0811276402797 24.853759439508906 69.35349802676203 H 0.0 **** 0.06
21589 H 137.95640498074397 26.590657024557657 69.72454193258761 H 0.0 **** 0.06
21590 H 139.24541093041367 25.61312202598893 70.46761360437591 H 0.0 **** 0.06
21591 C 124.11049493699264 160.67954442291818 59.26998876192306 C 0.0 **** -0.24
21592 H 123.70477900223676 160.76250197970546 58.26140766631731 H 0.0 **** 0.06
21593 H 124.55292881880226 161.6322533492076 59.56267318913463 H 0.0 **** 0.06
21594 H 124.87478587213977 159.9024372677947 59.29013895832864 H 0.0 **** 0.06
21595 H 123.31034582981948 160.42068176805407 59.9634617020164 H 0.0 **** 0.06
21596 C 98.1377159155042 40.96316775863633 38.18884760566657 C 0.0 **** -0.24
21597 H 98.75343132422103 40.22904013566361 38.70806850348845 H 0.0 **** 0.06
21598 H 98.38184174494421 41.962975610020564 38.54960245286233 H 0.0 **** 0.06
21599 H 97.0851743747549 40.7551542881222 38.38066491626472 H 0.0 **** 0.06
21600 H 98.32942145919634 40.905565034715764 37.11713443942472 H 0.0 **** 0.06
21601 C 88.78364234906145 60.32260707191301 120.35810676701607 C 0.0 **** -0.24
21602 H 89.65431827384978 60.057815235491944 120.95819335056882 H 0.0 **** 0.06
21603 H 87.90111083362326 60.36113352060329 120.99640529652626 H 0.0 **** 0.06
21604 H 88.63793739532632 59.574093469899935 119.57988982313 H 0.0 **** 0.06
21605 H 88.94284682704462 61.298295595419404 119.89862441296566 H 0.0 **** 0.06
21606 C 133.98472315663892 146.80331790928548 111.58432170915071 C 0.0 **** -0.24
21607 H 133.51658723262491 147.78082595303596 111.70506523147162 H 0.0 **** 0.06
21608 H 134.2650767258561 146.66119187470377 110.54140742413458 H 0.0 **** 0.06
21609 H 133.27996138360987 146.02598842529426 111.88117003415286 H 0.0 **** 0.06
21610 H 134.87378813285414 146.74676042956008 112.21127534824359 H 0.0 **** 0.06
21611 C 66.60199539698289 45.161965855131896 69.402008966589 C 0.0 **** -0.24
21612 H 66.53912198062523 46.217415032111774 69.66896810917797 H 0.0 **** 0.06
21613 H 65.78136816482248 44.61906943741536 69.87070567365565 H 0.0 **** 0.06
21614 H 67.55212467109499 44.75626539796929 69.74960167096542 H 0.0 **** 0.06
21615 H 66.53678759491288 45.056825046510184 68.3189888643985 H 0.0 **** 0.06
21616 C 53.7744462373405 144.10210141583815 129.5360337708312 C 0.0 **** -0.24
21617 H 53.71761923801823 145.17622034546625 129.36358272556856 H 0.0 **** 0.06
21618 H 52.797503674351574 143.73164556450857 129.8490799641332 H 0.0 **** 0.06
21619 H 54.50792493106087 143.89850545944728 130.3176026664382 H 0.0 **** 0.06
21620 H 54.07567737392836 143.6011753195845 128.61570771489585 H 0.0 **** 0.06
21621 C 44.50389494786464 26.76905068761078 86.52262012213319 C 0.0 **** -0.24
21622 H 44.717118050976865 25.87026504084084 87.0994419281014 H 0.0 **** 0.06
21623 H 44.72360791372506 27.649488029692634 87.12680758893183 H 0.0 **** 0.06
21624 H 43.451323397728146 26.77718180946279 86.23817465548329 H 0.0 **** 0.06
21625 H 45.122354784504765 26.77986401840274 85.62554394561013 H 0.0 **** 0.06
21626 C 9.784029735747744 37.43338624991128 150.72072346259415 C 0.0 **** -0.24
21627 H 10.316682799279583 37.49245666572784 151.66967160341832 H 0.0 **** 0.06
21628 H 10.120078817181245 36.55564243212703 150.1691412145436 H 0.0 **** 0.06
21629 H 9.986880868824109 38.33067869452913 150.13533137537047 H 0.0 **** 0.06
21630 H 8.713564531783213 37.357835593857885 150.9093832229418 H 0.0 **** 0.06
21631 C 90.48849199902013 82.9217977124437 142.9069770126507 C 0.0 **** -0.24
21632 H 90.745083194494 83.84466666822496 143.4271798911974 H 0.0 **** 0.06
21633 H 90.88027972551247 82.95789233269888 141.8898566779896 H 0.0 **** 0.06
21634 H 89.4048840096044 82.81223084921275 142.87610653215043 H 0.0 **** 0.06
21635 H 90.9248901565956 82.07454544694768 143.43457855826466 H 0.0 **** 0.06
21636 C 142.07689747000313 160.24931126745076 157.55192777950342 C 0.0 **** -0.24
21637 H 141.80747627300354 160.7271423469768 158.49380455561618 H 0.0 **** 0.06
21638 H 142.73732950832374 159.40464232996328 157.7491132389908 H 0.0 **** 0.06
21639 H 142.5895203163119 160.97007585302322 156.91355840207575 H 0.0 **** 0.06
21640 H 141.1753056927219 159.897719912088 157.05184885773605 H 0.0 **** 0.06
21641 C 41.65961379756192 16.043339681208835 110.51543496444398 C 0.0 **** -0.24
21642 H 40.918399508708944 16.313581133383657 109.76293038836707 H 0.0 **** 0.06
21643 H 41.152909539836685 15.771860881612092 111.44205477252754 H 0.0 **** 0.06
21644 H 42.319241185210274 16.892348758763312 110.69664616481415 H 0.0 **** 0.06
21645 H 42.24612852345385 15.19647785665041 110.16023686458465 H 0.0 **** 0.06
21646 C 105.28050196343301 150.31067251130557 17.729076664074995 C 0.0 **** -0.24
21647 H 106.36869181042604 150.31391301093882 17.666614354223867 H 0.0 **** 0.06
21648 H 104.86121894142912 150.68153663775144 16.794454442313736 H 0.0 **** 0.06
21649 H 104.96283175382214 150.95391254644045 18.55065935859386 H 0.0 **** 0.06
21650 H 104.93033163043779 149.29370928492517 17.90735659417149 H 0.0 **** 0.06
21651 C 64.33375776527352 15.83777352491677 103.07564921092458 C 0.0 **** -0.24
21652 H 65.40763150686561 15.980796025246605 102.95290168962245 H 0.0 **** 0.06
21653 H 64.1224307307483 15.536222584823463 104.10132317762549 H 0.0 **** 0.06
21654 H 63.99104991652723 15.061492872222232 102.39124006858603 H 0.0 **** 0.06
21655 H 63.815136645706374 16.770273900466577 102.85565299273699 H 0.0 **** 0.06
21656 C 36.00564290947234 30.6141801677892 103.24741330508925 C 0.0 **** -0.24
21657 H 36.10784508299325 29.57175508986178 103.54941804550327 H 0.0 **** 0.06
21658 H 35.58529522741789 30.661622306325697 102.24235047998752 H 0.0 **** 0.06
21659 H 36.985170735807685 31.092379196105213 103.25572684844707 H 0.0 **** 0.06
21660 H 35.343772122322235 31.130581155963668 103.94342860352094 H 0.0 **** 0.06
21661 C 110.03300807401104 63.186367430486285 113.32583772084956 C 0.0 **** -0.24
21662 H 110.88245432821662 62.555450677634084 113.58769703329585 H 0.0 **** 0.06
21663 H 109.75690346812416 63.009295968400096 112.28568236308368 H 0.0 **** 0.06
21664 H 110.30518703888725 64.23401720219833 113.45671465104945 H 0.0 **** 0.06
21665 H 109.1894080557517 62.946567867259176 113.97174275641271 H 0.0 **** 0.06
21666 C 56.42619565919529 1.121323807514159 113.06603587359473 C 0.0 **** -0.24
21667 H 55.47676347186655 1.0733470981404025 112.53435937930956 H 0.0 **** 0.06
21668 H 57.24538248723991 0.9797105692989021 112.35998781639853 H 0.0 **** 0.06
21669 H 56.45891108431829 0.3384458128767278 113.82341353180271 H 0.0 **** 0.06
21670 H 56.52536051415311 2.0949604561693036 113.54540230833706 H 0.0 **** 0.06
21671 C 166.8320150290642 74.6791500166407 44.382544794924456 C 0.0 **** -0.24
21672 H 165.92720624901736 74.08382320982601 44.26548407064104 H 0.0 **** 0.06
21673 H 167.6740664250506 74.0209447980433 44.59821709543556 H 0.0 **** 0.06
21674 H 166.70040944641505 75.38292883030384 45.203755794984374 H 0.0 **** 0.06
21675 H 167.0264365388591 75.22861595189299 43.46133870832415 H 0.0 **** 0.06
21676 C 152.77632277138918 10.315047679813574 79.09796828055363 C 0.0 **** -0.24
21677 H 152.145208866938 10.9229072620345 78.44885720993659 H 0.0 **** 0.06
21678 H 152.15186525749584 9.643035820532134 79.68590623191025 H 0.0 **** 0.06
21679 H 153.3409711230309 10.964940955726775 79.76637695040074 H 0.0 **** 0.06
21680 H 153.46752322106914 9.731418120577644 78.49005080541997 H 0.0 **** 0.06
21681 C 75.38481321850523 60.689696009125484 129.32663185424371 C 0.0 **** -0.24
21682 H 75.87182364248505 61.59525236154397 129.68717685761666 H 0.0 **** 0.06
21683 H 75.74714233211967 59.83204415239477 129.8940339254534 H 0.0 **** 0.06
21684 H 75.61258993244549 60.550306715970166 128.2702121662887 H 0.0 **** 0.06
21685 H 74.3057318464488 60.780875375629606 129.45612679482406 H 0.0 **** 0.06
21686 C 170.11114242840551 79.93541159681348 90.06183163293798 C 0.0 **** -0.24
21687 H 170.35861795817624 78.96931964124673 89.62115669686989 H 0.0 **** 0.06
21688 H 171.01835785106283 80.40176405429918 90.44627896808385 H 0.0 **** 0.06
21689 H 169.40330637339662 79.7903699090362 90.87821464694542 H 0.0 **** 0.06
21690 H 169.66498678505224 80.5767676706032 89.30301040204336 H 0.0 **** 0.06
21691 C 103.25209784924911 156.40839919479947 30.920480649041565 C 0.0 **** -0.24
21692 H 103.6055583667752 156.88254623742057 31.83618280255419 H 0.0 **** 0.06
21693 H 102.17772890526547 156.23950389520792 30.990580035521162 H 0.0 **** 0.06
21694 H 103.76247150457559 155.4553103477897 30.78407849043583 H 0.0 **** 0.06
21695 H 103.46427555667779 157.05873786932784 30.071289009081312 H 0.0 **** 0.06
21696 C 6.693431264731373 36.96746126391548 160.83539799155793 C 0.0 **** -0.24
21697 H 6.630333931745355 36.96101078061341 161.92291087142655 H 0.0 **** 0.06
21698 H 7.727305817599181 37.13338691906216 160.53243879632032 H 0.0 **** 0.06
21699 H 6.065290824512488 37.765999585609734 160.4398485794919 H 0.0 **** 0.06
21700 H 6.350387507148156 36.00855629040845 160.44659286810935 H 0.0 **** 0.06
21701 C 134.33554157260627 89.63520838177686 169.33902405682426 C 0.0 **** -0.24
21702 H 133.38715631089056 90.15787646618966 169.45800984090425 H 0.0 **** 0.06
21703 H 135.03332339729067 90.26975820763805 168.79231184890676 H 0.0 **** 0.06
21704 H 134.1748012351058 88.71111084943236 168.78506247012092 H 0.0 **** 0.06
21705 H 134.74800243354912 89.40330655286898 170.32122911671223 H 0.0 **** 0.06
21706 C 68.43984749703259 116.07719886694142 21.35699354977023 C 0.0 **** -0.24
21707 H 67.37366114950868 116.22875548085966 21.526933139352536 H 0.0 **** 0.06
21708 H 68.77324472610178 116.72220465657173 20.54308443519166 H 0.0 **** 0.06
21709 H 68.62187726404903 115.03511584116532 21.092888766666867 H 0.0 **** 0.06
21710 H 68.99055630637878 116.32367597304969 22.26478043481025 H 0.0 **** 0.06
21711 C 20.4036376528533 147.35995590943736 50.47323480042337 C 0.0 **** -0.24
21712 H 21.119365810487423 147.7597870213268 51.19113413517522 H 0.0 **** 0.06
21713 H 19.46537725713739 147.13612540670258 50.98181964930416 H 0.0 **** 0.06
21714 H 20.804312604381252 146.4480347590789 50.03154762679904 H 0.0 **** 0.06
21715 H 20.225916122192892 148.0956719067794 49.68932141635486 H 0.0 **** 0.06
21716 C 134.2314347295138 14.603364712198925 74.12925380948012 C 0.0 **** -0.24
21717 H 133.4355048817886 14.011384867743452 74.58265183076855 H 0.0 **** 0.06
21718 H 135.05589055814812 13.947187395031683 73.8474113968149 H 0.0 **** 0.06
21719 H 134.5843619666095 15.345182857345748 74.84594788719342 H 0.0 **** 0.06
21720 H 133.84792203633802 15.107885907159748 73.24221008265646 H 0.0 **** 0.06
21721 C 96.53230082786592 84.58405635023023 169.02634007106514 C 0.0 **** -0.24
21722 H 96.04783495234253 84.4077601341669 169.98727174121234 H 0.0 **** 0.06
21723 H 97.55346466593446 84.92837925086529 169.1919551650777 H 0.0 **** 0.06
21724 H 95.97722851775762 85.34211435674436 168.47392630477998 H 0.0 **** 0.06
21725 H 96.54907925414037 83.65656779939778 168.4529015893607 H 0.0 **** 0.06
21726 C 99.76921934001427 106.20050260586149 169.93363147813474 C 0.0 **** -0.24
21727 H 99.76886254502034 105.47432329736537 169.12045088103355 H 0.0 **** 0.06
21728 H 100.7090510933462 106.75316391894685 169.92663490520133 H 0.0 **** 0.06
21729 H 99.66043292164233 105.67990870893692 170.88453140223388 H 0.0 **** 0.06
21730 H 98.93832404555735 106.89298344481136 169.8010929363553 H 0.0 **** 0.06
21731 C 28.22278370824688 42.64713507939712 170.45480349228836 C 0.0 **** -0.24
21732 H 28.96925056098823 43.41891526506694 170.2694720521017 H 0.0 **** 0.06
21733 H 27.83377650979034 42.7532576311055 171.4670730046035 H 0.0 **** 0.06
21734 H 28.681360351019975 41.664220333917626 170.34202814213464 H 0.0 **** 0.06
21735 H 27.407399047583084 42.75102507951124 169.73881961470659 H 0.0 **** 0.06
21736 C 19.414859001978165 60.89093382367494 50.91582470532467 C 0.0 **** -0.24
21737 H 19.463243778666772 60.18800850731982 50.083868509470165 H 0.0 **** 0.06
21738 H 18.424748794145557 61.346446140506345 50.94925393825997 H 0.0 **** 0.06
21739 H 20.168045047989644 61.666725351335316 50.77898368753284 H 0.0 **** 0.06
21740 H 19.60370256751331 60.36135762701352 51.8493290326216 H 0.0 **** 0.06
21741 C 53.297151647322494 17.638422704107022 162.17793674242006 C 0.0 **** -0.24
21742 H 53.11449481275906 18.452560385409967 162.87830483313505 H 0.0 **** 0.06
21743 H 52.98526146132997 16.6958548959989 162.6282528924295 H 0.0 **** 0.06
21744 H 54.36011951932102 17.594188146064596 161.94141870189733 H 0.0 **** 0.06
21745 H 52.727995174083105 17.81040997588306 161.26377072713674 H 0.0 **** 0.06
21746 C 147.47851547525767 117.16079819357725 129.77941239953353 C 0.0 **** -0.24
21747 H 147.43161424377178 116.92800787472655 128.71570937704797 H 0.0 **** 0.06
21748 H 146.52948971605935 116.90279253819594 130.2503979635275 H 0.0 **** 0.06
21749 H 147.672529142448 118.22520305701991 129.91155311036658 H 0.0 **** 0.06
21750 H 148.28120158771281 116.58557677180656 130.24133178475378 H 0.0 **** 0.06
21751 C 140.11067644620772 86.13827599903692 127.3833214231318 C 0.0 **** -0.24
21752 H 140.94675094016515 86.46820200212619 128.00053976244442 H 0.0 **** 0.06
21753 H 139.95254010497 85.06940994346398 127.52600089077924 H 0.0 **** 0.06
21754 H 140.33488745317067 86.33655559840524 126.3352389794644 H 0.0 **** 0.06
21755 H 139.21080943107955 86.68132002208633 127.67117331691867 H 0.0 **** 0.06
21756 C 77.50988075702077 25.38381348359539 0.7817590308099227 C 0.0 **** -0.24
21757 H 76.7851961434672 25.55401801736653 -0.01591438439142223 H 0.0 **** 0.06
21758 H 78.31608963560507 26.11306818802251 0.7006849145728751 H 0.0 **** 0.06
21759 H 77.918868005061 24.37792706138694 0.6909509924186636 H 0.0 **** 0.06
21760 H 77.017880885681 25.4914736721189 1.7481107154075772 H 0.0 **** 0.06
21761 C 59.78253396194464 129.17896021807707 156.26357643131257 C 0.0 **** -0.24
21762 H 59.24458401714264 128.8815551263019 157.16335375641333 H 0.0 **** 0.06
21763 H 59.418508797964705 130.14951850197716 155.92730947222086 H 0.0 **** 0.06
21764 H 59.6184531389639 128.43777286088465 155.4813737909199 H 0.0 **** 0.06
21765 H 60.847785614627924 129.24569613740704 156.4830858819093 H 0.0 **** 0.06
21766 C 88.63117583525815 133.64190333185434 123.89658093206106 C 0.0 **** -0.24
21767 H 88.86541486804316 133.65353620425662 122.83216234255718 H 0.0 **** 0.06
21768 H 89.53513730370793 133.4229473228891 124.46499549641416 H 0.0 **** 0.06
21769 H 87.88268064833221 132.8738243653509 124.09395841454221 H 0.0 **** 0.06
21770 H 88.2419426351089 134.61495006089785 124.19341037350338 H 0.0 **** 0.06
21771 C 8.820842536991144 22.33751810292719 1.422864424872671 C 0.0 **** -0.24
21772 H 8.720800637762991 22.043902951377056 2.467583015548449 H 0.0 **** 0.06
21773 H 7.907336609630363 22.833875303476333 1.096152592763822 H 0.0 **** 0.06
21774 H 8.991788067488898 21.45046808847073 0.8122457994335548 H 0.0 **** 0.06
21775 H 9.663835794397151 23.020251953504008 1.3160840708068449 H 0.0 **** 0.06
21776 C 123.28812394539511 53.10040494467779 59.03653143336615 C 0.0 **** -0.24
21777 H 123.34295226800913 52.05213533831322 58.742713674762456 H 0.0 **** 0.06
21778 H 122.9944316307539 53.70290880810796 58.17644008379456 H 0.0 **** 0.06
21779 H 124.26330581984098 53.427850274583065 59.39610345069681 H 0.0 **** 0.06
21780 H 122.5499135626722 53.21578114653144 59.83000225273656 H 0.0 **** 0.06
21781 C 1.9999943583644324 54.65287287090899 139.56264584669037 C 0.0 **** -0.24
21782 H 1.1368161765934701 54.95883348724672 138.97021040167022 H 0.0 **** 0.06
21783 H 2.885828843007687 54.629578663442885 138.9279318710564 H 0.0 **** 0.06
21784 H 1.822330642209721 53.65998508756678 139.9756696174668 H 0.0 **** 0.06
21785 H 2.1522702632236133 55.36238138705997 140.37503051925611 H 0.0 **** 0.06
21786 C 139.54892166239011 18.84049143148127 143.191350302391 C 0.0 **** -0.24
21787 H 140.3274959237188 19.555140299032132 143.4576326571863 H 0.0 **** 0.06
21788 H 139.5486903343372 18.689822301044956 142.11104433138172 H 0.0 **** 0.06
21789 H 138.57965376467615 19.227015476201956 143.5046569584269 H 0.0 **** 0.06
21790 H 139.74162905880752 17.89109122486792 143.69080028760408 H 0.0 **** 0.06
21791 C 60.53817899494945 141.29174928201786 89.03821123988445 C 0.0 **** -0.24
21792 H 60.91491569891379 140.27465725441442 88.93428615492996 H 0.0 **** 0.06
21793 H 60.574174878009615 141.58568333194611 90.08758261229804 H 0.0 **** 0.06
21794 H 59.507865222237044 141.3352440032477 88.68332962629557 H 0.0 **** 0.06
21795 H 61.15392065421646 141.97021586696016 88.44873481573399 H 0.0 **** 0.06
21796 C 80.08133237752446 3.5615621396150203 141.89392278276554 C 0.0 **** -0.24
21797 H 80.50571918450873 2.971648250593752 141.08111059956804 H 0.0 **** 0.06
21798 H 80.06618230800387 2.9656543953502705 142.80575806601303 H 0.0 **** 0.06
21799 H 79.06447088221478 3.856820131275363 141.63428916308152 H 0.0 **** 0.06
21800 H 80.68892794513448 4.452823253491999 142.05085728941867 H 0.0 **** 0.06
21801 C 158.2987136834193 60.287589259424976 144.77284379117697 C 0.0 **** -0.24
21802 H 157.88564863692022 61.21825684055372 145.16207676821702 H 0.0 **** 0.06
21803 H 158.17993512341658 60.262634940346175 143.68929954190912 H 0.0 **** 0.06
21804 H 157.7722867717172 59.44263995907181 145.21560506268403 H 0.0 **** 0.06
21805 H 159.35755773286567 60.22810716313549 145.0242266426963 H 0.0 **** 0.06
21806 C 118.07055779483136 38.45295128967554 165.67651218301995 C 0.0 **** -0.24
21807 H 117.41006755011344 39.31671718990356 165.60656744113606 H 0.0 **** 0.06
21808 H 117.5804237673459 37.666507611993495 166.24971558424886 H 0.0 **** 0.06
21809 H 118.99592783389701 38.74254884208615 166.1749294251436 H 0.0 **** 0.06
21810 H 118.29664029763063 38.086211166404595 164.67536705699524 H 0.0 **** 0.06
21811 C 77.84761469846022 121.35856711467457 59.977968572798716 C 0.0 **** -0.24
21812 H 77.9419384765722 122.26620957521072 60.57573728043485 H 0.0 **** 0.06
21813 H 78.57925454602982 121.37783398780306 59.16975874389398 H 0.0 **** 0.06
21814 H 76.84307969184162 121.3038943823187 59.55872581422258 H 0.0 **** 0.06
21815 H 78.0261713197205 120.48838933965746 60.610052722580534 H 0.0 **** 0.06
21816 C 122.50086926006867 106.43018178350422 71.79426573681769 C 0.0 **** -0.24
21817 H 122.50878150578086 106.71432703895331 72.8469181375936 H 0.0 **** 0.06
21818 H 121.64363541490889 106.88780141883561 71.30104512374379 H 0.0 **** 0.06
21819 H 122.4330133032962 105.34535325738517 71.71170165344367 H 0.0 **** 0.06
21820 H 123.4199189301973 106.77437500814 71.3194521670813 H 0.0 **** 0.06
21821 C 75.41899860799651 63.33679074748714 126.22987099406839 C 0.0 **** -0.24
21822 H 75.29129155157676 64.39390730928747 126.46027419210421 H 0.0 **** 0.06
21823 H 75.47529961406627 62.76725334819341 127.15829738968819 H 0.0 **** 0.06
21824 H 76.33816725055613 63.196215704079535 125.66149538145541 H 0.0 **** 0.06
21825 H 74.57029546467606 62.98828802938176 125.64078438433083 H 0.0 **** 0.06
21826 C 124.10047464594112 102.57732325793194 138.29946438156583 C 0.0 **** -0.24
21827 H 123.15302592516582 102.08659978317326 138.07502374687175 H 0.0 **** 0.06
21828 H 124.58691707848777 102.8713402003919 137.36951600877182 H 0.0 **** 0.06
21829 H 124.7444134971746 101.88870027041179 138.84593606870703 H 0.0 **** 0.06
21830 H 123.91542762179154 103.46258783345678 138.9086166123945 H 0.0 **** 0.06
21831 C 56.089178206430915 158.2349642992657 66.98610114451616 C 0.0 **** -0.24
21832 H 57.11660519903671 158.3845618639364 66.655172886919 H 0.0 **** 0.06
21833 H 55.54200771215744 159.17532784087905 66.91050299044532 H 0.0 **** 0.06
21834 H 56.08602343596999 157.89472888504835 68.02183137322338 H 0.0 **** 0.06
21835 H 55.610266355981366 157.4847036380389 66.35569840966923 H 0.0 **** 0.06
21836 C 62.548979887731704 138.39889482853164 164.3223049044016 C 0.0 **** -0.24
21837 H 62.37347900442349 138.98127896277816 165.22774368881664 H 0.0 **** 0.06
21838 H 63.520220244263825 138.66204194299652 163.90388652793828 H 0.0 **** 0.06
21839 H 61.767797733700675 138.6160524076016 163.59487712802286 H 0.0 **** 0.06
21840 H 62.53353325711984 137.33661292888456 164.56684071532788 H 0.0 **** 0.06
21841 C 22.726582470828816 122.71153717375151 107.31947350471759 C 0.0 **** -0.24
21842 H 22.498186162856058 123.41610828490923 106.51943233316999 H 0.0 **** 0.06
21843 H 23.808089848039458 122.59694565639757 107.40456648946105 H 0.0 **** 0.06
21844 H 22.275308828409464 121.74606297465729 107.09202276422462 H 0.0 **** 0.06
21845 H 22.325334914456334 123.08850321652687 108.25952996578457 H 0.0 **** 0.06
21846 C 71.54255442819033 104.38752167903229 116.92281392665075 C 0.0 **** -0.24
21847 H 72.3152694049486 104.36031549289646 117.69017663961779 H 0.0 **** 0.06
21848 H 71.02595797712877 103.42728446566133 116.89199452696602 H 0.0 **** 0.06
21849 H 72.00010947491171 104.58453841771674 115.95300054981459 H 0.0 **** 0.06
21850 H 70.82834086134062 105.17740849727156 117.1548935987297 H 0.0 **** 0.06
21851 C 153.89482306091944 167.00548190222926 111.4280487358414 C 0.0 **** -0.24
21852 H 154.60661374334805 166.4544453914288 112.0426925126755 H 0.0 **** 0.06
21853 H 153.1468298381019 166.31763915356865 111.03273531731594 H 0.0 **** 0.06
21854 H 154.42116682249227 167.48323386164654 110.60251711427486 H 0.0 **** 0.06
21855 H 153.4033587968074 167.76644139059619 112.03472058651397 H 0.0 **** 0.06
21856 C 55.49972949776674 163.19995764680635 32.77412250588259 C 0.0 **** -0.24
21857 H 55.37438249505169 164.27168425052764 32.61918895006414 H 0.0 **** 0.06
21858 H 54.564526157467355 162.6883928855941 32.54298090888548 H 0.0 **** 0.06
21859 H 55.76969286494767 163.0116212153136 33.813670186042316 H 0.0 **** 0.06
21860 H 56.28903445891086 162.82833589772216 32.12121124141606 H 0.0 **** 0.06
21861 C 171.2458251773901 121.74965305543387 144.68819872871148 C 0.0 **** -0.24
21862 H 171.66802854691562 121.61980865438679 143.69247794021885 H 0.0 **** 0.06
21863 H 172.00043595566297 122.17770328759354 145.34881797188118 H 0.0 **** 0.06
21864 H 170.929708353397 120.78144919045761 145.0769385191101 H 0.0 **** 0.06
21865 H 170.3867365320926 122.41817778045711 144.63505206697346 H 0.0 **** 0.06
21866 C 68.77077592586586 72.59526676322076 21.513901848826293 C 0.0 **** -0.24
21867 H 68.25308279103704 72.18920680917267 20.64454844966493 H 0.0 **** 0.06
21868 H 69.42610695234784 73.40694935439939 21.199730286004907 H 0.0 **** 0.06
21869 H 69.3641398226224 71.80984466746497 21.98216951424145 H 0.0 **** 0.06
21870 H 68.04027916083379 72.97319045485582 22.22868316081977 H 0.0 **** 0.06
21871 C 156.70223950047574 158.22599881030158 13.316511006729087 C 0.0 **** -0.24
21872 H 156.45802326957596 157.64022190767236 12.430997593715489 H 0.0 **** 0.06
21873 H 155.96061413490426 158.03619873209647 14.093120922888573 H 0.0 **** 0.06
21874 H 156.69891835441757 159.28590344150638 13.06253005758768 H 0.0 **** 0.06
21875 H 157.69004685622482 157.94195314840334 13.679684355893386 H 0.0 **** 0.06
21876 C 67.32408403924369 116.33645850510783 95.59245875275903 C 0.0 **** -0.24
21877 H 68.15649253969592 116.47583234333064 96.28298481020843 H 0.0 **** 0.06
21878 H 67.19288758108405 115.27211979587449 95.39266176087318 H 0.0 **** 0.06
21879 H 67.5357574007519 116.85816714811457 94.6586687932346 H 0.0 **** 0.06
21880 H 66.41298842075278 116.73838670153279 96.03533760186514 H 0.0 **** 0.06
21881 C 125.13035732936851 109.8737373152997 68.9507757650519 C 0.0 **** -0.24
21882 H 125.73406763910998 110.60557861940521 68.41447795548692 H 0.0 **** 0.06
21883 H 124.79779130931104 110.30087083283144 69.8974726639388 H 0.0 **** 0.06
21884 H 125.72784573518516 108.98203438229325 69.144839456292 H 0.0 **** 0.06
21885 H 124.26348669686024 109.60606793168205 68.34763104040877 H 0.0 **** 0.06
21886 C 88.73560303265585 97.45744762826442 146.3328687389236 C 0.0 **** -0.24
21887 H 89.75807588430003 97.33638697431101 146.68837362735417 H 0.0 **** 0.06
21888 H 88.71539013375178 98.19325743627678 145.52858361110162 H 0.0 **** 0.06
21889 H 88.10321857101835 97.79786100134496 147.1527295864057 H 0.0 **** 0.06
21890 H 88.36481083418245 96.50202351308374 145.9614860592763 H 0.0 **** 0.06
21891 C 102.62832068515235 67.05768815661911 120.62120471109262 C 0.0 **** -0.24
21892 H 103.15579566463327 66.98830716537063 119.67094235176992 H 0.0 **** 0.06
21893 H 101.83423767120226 66.31110963953194 120.65156737260193 H 0.0 **** 0.06
21894 H 102.19534732861098 68.05296131764014 120.72579733436652 H 0.0 **** 0.06
21895 H 103.32734678258802 66.8783915786959 121.43815234690612 H 0.0 **** 0.06
21896 C 113.8519607003746 100.84321952271779 156.57342065782672 C 0.0 **** -0.24
21897 H 114.8728569831681 100.71724126004037 156.9349555272573 H 0.0 **** 0.06
21898 H 113.23142242749151 101.24698758738714 157.3734573996903 H 0.0 **** 0.06
21899 H 113.45723602768504 99.87740889976803 156.25855965972215 H 0.0 **** 0.06
21900 H 113.84919678415866 101.5299846025267 155.72714572408756 H 0.0 **** 0.06
21901 C 163.07278428883353 150.88482166032776 114.30125841347032 C 0.0 **** -0.24
21902 H 163.8788295879395 150.57319331784396 114.96646662979458 H 0.0 **** 0.06
21903 H 163.27152310696118 150.51661173024027 113.29511155781165 H 0.0 **** 0.06
21904 H 163.01615405154462 151.97298866608264 114.2862333303193 H 0.0 **** 0.06
21905 H 162.12838546512 150.47637424235984 114.65943256517428 H 0.0 **** 0.06
21906 C 8.025589694114984 61.41901851232939 16.255746230801833 C 0.0 **** -0.24
21907 H 7.04906397826673 61.571726846246236 15.796190057537444 H 0.0 **** 0.06
21908 H 8.096119537782215 60.39616327941252 16.62632403741219 H 0.0 **** 0.06
21909 H 8.14967234653352 62.11546707501293 17.085354630142035 H 0.0 **** 0.06
21910 H 8.806478383224686 61.59311689975675 15.516005215502332 H 0.0 **** 0.06
21911 C 59.428508980651316 56.489326095025135 73.6138193865358 C 0.0 **** -0.24
21912 H 59.31635782216176 56.532222298602406 72.53077866771184 H 0.0 **** 0.06
21913 H 60.40217413469986 56.89267044563826 73.89404736401343 H 0.0 **** 0.06
21914 H 59.35382210448975 55.45398446052273 73.946299091235 H 0.0 **** 0.06
21915 H 58.64127492479781 57.07940275272172 74.08321289811624 H 0.0 **** 0.06
21916 C 149.5344086535669 109.55014303984652 166.1876615165749 C 0.0 **** -0.24
21917 H 149.23629452915316 110.2921596321871 166.92812996344247 H 0.0 **** 0.06
21918 H 148.91446750714306 108.65988186496364 166.29635934257016 H 0.0 **** 0.06
21919 H 150.5807115499194 109.28573969817955 166.34074746232585 H 0.0 **** 0.06
21920 H 149.4065542199322 109.96218081265977 165.1872729575722 H 0.0 **** 0.06
21921 C 36.04496395606506 163.99142902324698 13.359917307262066 C 0.0 **** -0.24
21922 H 35.28927430675722 163.3200863393953 12.952386532091282 H 0.0 **** 0.06
21923 H 36.196111275930406 163.76816771775228 14.416125651664515 H 0.0 **** 0.06
21924 H 35.71197439473396 165.0232780659606 13.250064324526647 H 0.0 **** 0.06
21925 H 36.98244629490287 163.85245308124274 12.821052064554749 H 0.0 **** 0.06
21926 C 109.86549197437401 94.37161181096843 121.57984443750871 C 0.0 **** -0.24
21927 H 110.09912941405275 94.82383471597933 120.61546110884495 H 0.0 **** 0.06
21928 H 110.4384327927203 94.86882313267307 122.3626336230999 H 0.0 **** 0.06
21929 H 110.12405919622427 93.31322207643933 121.55550653131209 H 0.0 **** 0.06
21930 H 108.7998007113431 94.48112796731743 121.78288027453533 H 0.0 **** 0.06
21931 C 169.92225817114883 133.4804111088751 10.78905852291254 C 0.0 **** -0.24
21932 H 169.91809486141938 132.3910267978078 10.736468458671567 H 0.0 **** 0.06
21933 H 170.58860473383163 133.8777660435503 10.022955710353187 H 0.0 **** 0.06
21934 H 170.27052066455855 133.79482224277746 11.773057541080988 H 0.0 **** 0.06
21935 H 168.91279250342632 133.8560216978991 10.623846790651783 H 0.0 **** 0.06
21936 C 128.2589094879156 142.11648064425242 85.93339661074936 C 0.0 **** -0.24
21937 H 128.64027113244822 143.01701822247404 85.45214558618284 H 0.0 **** 0.06
21938 H 128.14741323687258 141.32713194030757 85.18928074237252 H 0.0 **** 0.06
21939 H 127.29084935471252 142.32808955303048 86.38602493136096 H 0.0 **** 0.06
21940 H 128.95814972676894 141.79291250425555 86.7043148475655 H 0.0 **** 0.06
21941 C 79.08445567675585 0.9638861592212891 73.57473885872147 C 0.0 **** -0.24
21942 H 78.04791565219418 1.0690902330733891 73.8958557832502 H 0.0 **** 0.06
21943 H 79.27567035990506 -0.07334136691246584 73.29750390165886 H 0.0 **** 0.06
21944 H 79.7474941936913 1.2504159100803918 74.39110140915983 H 0.0 **** 0.06
21945 H 79.26683307876078 1.609432515849683 72.7154888512858 H 0.0 **** 0.06
21946 C 163.56656127744694 9.55003446420551 106.34648101779834 C 0.0 **** -0.24
21947 H 164.39488075679532 8.896682187330164 106.61809064537417 H 0.0 **** 0.06
21948 H 162.70789755997623 8.946024097982466 106.05119417929453 H 0.0 **** 0.06
21949 H 163.86459591250858 10.188505516465021 105.5151686569362 H 0.0 **** 0.06
21950 H 163.29690489999578 10.169668554270736 107.20223462832169 H 0.0 **** 0.06
21951 C 151.77554084374705 26.887646445044368 52.88179846712829 C 0.0 **** -0.24
21952 H 151.11159840069826 27.334128427054083 53.62222433464028 H 0.0 **** 0.06
21953 H 151.49558861600016 25.846812074277892 52.72374560134983 H 0.0 **** 0.06
21954 H 152.80409248965282 26.938744110976643 53.23899270794101 H 0.0 **** 0.06
21955 H 151.69121721055893 27.434039188599115 51.942026313924586 H 0.0 **** 0.06
21956 C 167.8185465696064 74.97375271760072 165.80506432860818 C 0.0 **** -0.24
21957 H 168.7165508464785 75.00917035586451 165.18733370212868 H 0.0 **** 0.06
21958 H 167.73381394096174 75.89968624464359 166.37460246833925 H 0.0 **** 0.06
21959 H 167.88321245069932 74.12923326852544 166.4914224126871 H 0.0 **** 0.06
21960 H 166.9433457918727 74.85730302216406 165.1662950141905 H 0.0 **** 0.06
21961 C 113.91069382850361 99.78775956732966 9.337799870800303 C 0.0 **** -0.24
21962 H 113.3115749566935 100.06024260001453 8.468439310492784 H 0.0 **** 0.06
21963 H 113.81092208116843 98.71875105587463 9.525881199081219 H 0.0 **** 0.06
21964 H 113.56296465489658 100.345214511233 10.207277058574789 H 0.0 **** 0.06
21965 H 114.95700911491593 100.02645291509538 9.147200837508692 H 0.0 **** 0.06
21966 C 46.646277182088625 109.40118757390309 83.19804138751427 C 0.0 **** -0.24
21967 H 47.05690359654558 110.40794487290853 83.2739417761467 H 0.0 **** 0.06
21968 H 46.52485775526377 108.98359239445904 84.1979967865579 H 0.0 **** 0.06
21969 H 47.32655137250424 108.77344685614986 82.62174560775422 H 0.0 **** 0.06
21970 H 45.67788947744465 109.4407663501645 82.70015592413432 H 0.0 **** 0.06
21971 C 123.39402823128003 47.62845753742435 72.85953572204151 C 0.0 **** -0.24
21972 H 123.35085921110323 48.28106858269837 73.73126585944082 H 0.0 **** 0.06
21973 H 124.16104762949405 46.86853589113784 73.01199078274738 H 0.0 **** 0.06
21974 H 123.63741461475644 48.21934368189004 71.97635746959881 H 0.0 **** 0.06
21975 H 122.4265526947533 47.146863872555656 72.71840526323308 H 0.0 **** 0.06
21976 C 150.18581407060884 142.07991248872088 57.33516588725371 C 0.0 **** -0.24
21977 H 150.0137331181346 142.90127602899182 58.02994803581292 H 0.0 **** 0.06
21978 H 151.11175977838735 142.2566476291081 56.78728593650638 H 0.0 **** 0.06
21979 H 149.35410286887424 142.016738823541 56.634415066213165 H 0.0 **** 0.06
21980 H 150.26437389832674 141.14529363469504 57.89019663068234 H 0.0 **** 0.06
21981 C 149.78962334975276 126.89039145199757 79.75141794054025 C 0.0 **** -0.24
21982 H 149.02443406325102 126.79779984094478 80.52263150078988 H 0.0 **** 0.06
21983 H 150.58282270445687 127.54958363356718 80.10408582351695 H 0.0 **** 0.06
21984 H 149.34417999760942 127.30774377243347 78.84780548265371 H 0.0 **** 0.06
21985 H 150.20398212416868 125.90760703756473 79.53072191766682 H 0.0 **** 0.06
21986 C 151.25958999606792 46.448421411890536 110.23489583140861 C 0.0 **** -0.24
21987 H 150.9784666361487 45.55083413580576 109.68421450896562 H 0.0 **** 0.06
21988 H 151.58624219849392 47.216692385429894 109.53436587259034 H 0.0 **** 0.06
21989 H 152.07238538106918 46.2121969983408 110.92146765261106 H 0.0 **** 0.06
21990 H 150.40088898524178 46.81154838774029 110.79935623854124 H 0.0 **** 0.06
21991 C 131.60428651817458 17.923388048853376 51.280131549038 C 0.0 **** -0.24
21992 H 130.81836679771004 17.90294912249199 52.034170399537174 H 0.0 **** 0.06
21993 H 132.41993256747918 17.268330332682638 51.588929446313216 H 0.0 **** 0.06
21994 H 131.97729896249675 18.94166530969367 51.171792673257244 H 0.0 **** 0.06
21995 H 131.20279721735128 17.58000239181139 50.32707341963646 H 0.0 **** 0.06
21996 C 104.51202460165592 75.61550231729558 128.03227272412676 C 0.0 **** -0.24
21997 H 104.06541646256389 76.44991007051539 128.57485461840835 H 0.0 **** 0.06
21998 H 104.34265115332201 75.74608106022941 126.9634303533445 H 0.0 **** 0.06
21999 H 104.0561165140843 74.68259732056646 128.36223368856827 H 0.0 **** 0.06
22000 H 105.58378936349862 75.58605337721423 128.23000551194292 H 0.0 **** 0.06
22001 C 87.09571003367861 168.48554823997932 154.1752708023281 C 0.0 **** -0.24
22002 H 87.25552176242884 167.63966497797145 153.50605340417692 H 0.0 **** 0.06
22003 H 87.60887830865813 169.36197765460125 153.78127086735668 H 0.0 **** 0.06
22004 H 87.49117479334608 168.24573782176685 155.16288044430442 H 0.0 **** 0.06
22005 H 86.02803216736868 168.6914753518919 154.25140347853954 H 0.0 **** 0.06
22006 C 118.19819699944435 133.6357017271476 77.67203379289577 C 0.0 **** -0.24
22007 H 117.87047065286475 132.61831353375413 77.45998221315337 H 0.0 **** 0.06
22008 H 117.37712533231999 134.1955030189914 78.1204465829617 H 0.0 **** 0.06
22009 H 118.50502447742764 134.11894698649476 76.74486116539649 H 0.0 **** 0.06
22010 H 119.04060974033231 133.6088816127378 78.36351962242883 H 0.0 **** 0.06
22011 C 169.34652991980323 107.00560257377731 152.7545365937142 C 0.0 **** -0.24
22012 H 168.43620102815225 106.4806134219566 153.0456429507825 H 0.0 **** 0.06
22013 H 169.18634799155603 107.5087853988428 151.80031910530533 H 0.0 **** 0.06
22014 H 170.162851623917 106.28926357806125 152.65556923769805 H 0.0 **** 0.06
22015 H 169.6010578089018 107.74237557017182 153.51657025201723 H 0.0 **** 0.06
22016 C 110.47662039836143 37.815685424576756 33.99257854407935 C 0.0 **** -0.24
22017 H 109.82392367055735 37.066766108885176 34.44021679306155 H 0.0 **** 0.06
22018 H 109.90530053592488 38.7226298925076 33.79248967210387 H 0.0 **** 0.06
22019 H 110.88539982940767 37.431023342953935 33.05830415181984 H 0.0 **** 0.06
22020 H 111.29180029155759 38.04370546346732 34.679014103701604 H 0.0 **** 0.06
22021 C 141.59548196526666 118.6637794389197 116.17310110366674 C 0.0 **** -0.24
22022 H 142.43831569073942 118.97032251996805 116.79245789191756 H 0.0 **** 0.06
22023 H 140.729641520385 119.28456771307893 116.40435732484576 H 0.0 **** 0.06
22024 H 141.35847902446156 117.61885556359454 116.37449102292257 H 0.0 **** 0.06
22025 H 141.85671085632674 118.78069137672475 115.12087380982334 H 0.0 **** 0.06
22026 C 53.17030674261326 111.34529034089238 46.79990744319946 C 0.0 **** -0.24
22027 H 54.168510715973525 110.91638799859663 46.70883160106348 H 0.0 **** 0.06
22028 H 52.428056725347915 110.54820927620608 46.76692483413808 H 0.0 **** 0.06
22029 H 52.996874057638195 112.03843477471466 45.97647918554594 H 0.0 **** 0.06
22030 H 53.08941339879132 111.87847987800527 47.74691766341164 H 0.0 **** 0.06
22031 C 108.89673639230716 112.30424652278683 24.20868160433264 C 0.0 **** -0.24
22032 H 108.53814745542911 111.64852040839659 25.00185019325349 H 0.0 **** 0.06
22033 H 109.86686402418763 112.71502008209936 24.48872919247424 H 0.0 **** 0.06
22034 H 108.18602486335209 113.11747085146914 24.059773870239127 H 0.0 **** 0.06
22035 H 108.9961810091591 111.73514999512588 23.283877235225816 H 0.0 **** 0.06
22036 C 111.30385916579652 28.547267923139316 25.765326930663093 C 0.0 **** -0.24
22037 H 112.18233686701643 28.690823288745605 25.136734095400385 H 0.0 **** 0.06
22038 H 110.73268652504345 29.474490469961324 25.807698371484435 H 0.0 **** 0.06
22039 H 111.61861523634235 28.267505390339352 26.770629234772542 H 0.0 **** 0.06
22040 H 110.68244775508299 27.75682361704935 25.345127184809485 H 0.0 **** 0.06
22041 C 124.0120850878605 59.49173701093595 56.04945806995761 C 0.0 **** -0.24
22042 H 123.57871093213947 59.7496336139925 57.01543444111633 H 0.0 **** 0.06
22043 H 124.13847961738094 60.39696714642416 55.455123967765644 H 0.0 **** 0.06
22044 H 123.34854522056804 58.80286746860382 55.52614095814948 H 0.0 **** 0.06
22045 H 124.98174291747966 59.018323035591834 56.20187221638963 H 0.0 **** 0.06
22046 C 144.7397765471784 98.13249967115297 48.47825315159406 C 0.0 **** -0.24
22047 H 144.09132533187707 98.70577442470079 47.81595846342856 H 0.0 **** 0.06
22048 H 144.26356765375817 98.03193304284048 49.454292939886386 H 0.0 **** 0.06
22049 H 145.69341810943325 98.64928877166511 48.59033797781518 H 0.0 **** 0.06
22050 H 144.90981791938017 97.14340295449563 48.053796107877815 H 0.0 **** 0.06
22051 C 171.82109909695424 164.06425408006822 76.49683510534459 C 0.0 **** -0.24
22052 H 171.84712859303514 163.30602075501375 77.27908689260312 H 0.0 **** 0.06
22053 H 171.80787426189187 163.57919094271784 75.52044888013609 H 0.0 **** 0.06
22054 H 172.7043405259412 164.69864964525664 76.57637787553995 H 0.0 **** 0.06
22055 H 170.92471838117518 164.6742975730979 76.61219002683356 H 0.0 **** 0.06
22056 C 32.91656468135301 164.12232989279573 70.91590201231554 C 0.0 **** -0.24
22057 H 33.50603379697884 163.3587450606865 70.407459707469 H 0.0 **** 0.06
22058 H 32.07799264158325 164.414809175028 70.28325992297954 H 0.0 **** 0.06
22059 H 33.542977444281235 164.9917044656236 71.11450230149399 H 0.0 **** 0.06
22060 H 32.53935940521163 163.72351794491513 71.85708444338249 H 0.0 **** 0.06
22061 C 51.488694519784275 115.11747972935947 51.32353867028456 C 0.0 **** -0.24
22062 H 51.172684535242325 115.85324286445447 50.58440643067786 H 0.0 **** 0.06
22063 H 52.01619835125666 115.61972013913095 52.13432129048306 H 0.0 **** 0.06
22064 H 52.153224421391414 114.3926058052775 50.852283943428404 H 0.0 **** 0.06
22065 H 50.61440636292414 114.60395585937073 51.721789344227204 H 0.0 **** 0.06
22066 C 117.56882173912905 127.28753258343167 29.5296275617371 C 0.0 **** -0.24
22067 H 117.8444642454379 128.22836927803374 30.00589083386764 H 0.0 **** 0.06
22068 H 118.22238108027662 126.49304464319837 29.88988758788264 H 0.0 **** 0.06
22069 H 117.67297785435238 127.38263761649901 28.44947031377511 H 0.0 **** 0.06
22070 H 116.5336854347826 127.04694615397679 29.77430330348851 H 0.0 **** 0.06
22071 C 88.06815709524159 114.00018178325001 37.94666222687191 C 0.0 **** -0.24
22072 H 87.17817416070591 113.7497391264888 38.52368564667718 H 0.0 **** 0.06
22073 H 87.80026893150267 114.11722178962498 36.89705290582337 H 0.0 **** 0.06
22074 H 88.80301964222917 113.20137434451158 38.04810633158135 H 0.0 **** 0.06
22075 H 88.49201769738153 114.93248529969546 38.31986931281348 H 0.0 **** 0.06
22076 C 151.16917544045396 20.635225609622324 168.88908853570453 C 0.0 **** -0.24
22077 H 150.32062011389874 20.094806633764563 169.3098537937369 H 0.0 **** 0.06
22078 H 151.6470110779403 21.22489998335314 169.67165829711055 H 0.0 **** 0.06
22079 H 150.82065534375496 21.29626021617574 168.09544177429245 H 0.0 **** 0.06
22080 H 151.88604231918814 19.92345064436833 168.48047937681045 H 0.0 **** 0.06
22081 C 55.25374140820833 144.47938867421493 78.30467211745382 C 0.0 **** -0.24
22082 H 54.79180355548404 145.37268895415713 78.72458306488653 H 0.0 **** 0.06
22083 H 55.022990363081135 143.62072172829977 78.93647213449835 H 0.0 **** 0.06
22084 H 56.333999475183475 144.61682897279474 78.25899002709765 H 0.0 **** 0.06
22085 H 54.86634312824104 144.307643791666 77.30060865220202 H 0.0 **** 0.06
22086 C 9.003173099714132 17.23237596917039 31.834334069120473 C 0.0 **** -0.24
22087 H 8.471834260371509 16.349518600657348 32.18837087750535 H 0.0 **** 0.06
22088 H 9.809054284739261 17.474400129108574 32.52846450002039 H 0.0 **** 0.06
22089 H 8.311363269578294 18.072256968907084 31.772034437706225 H 0.0 **** 0.06
22090 H 9.421881086134078 17.033031148001754 30.847551687477562 H 0.0 **** 0.06
22091 C 79.34437248238007 5.670263631594892 84.65651813716795 C 0.0 **** -0.24
22092 H 79.41535345003297 4.9591604047219775 85.47953459317313 H 0.0 **** 0.06
22093 H 80.28634812007242 5.684765751719503 84.10751468114239 H 0.0 **** 0.06
22094 H 79.13789988465244 6.66485928207517 85.05202508822202 H 0.0 **** 0.06
22095 H 78.53741498887105 5.370936485034676 83.98699213000435 H 0.0 **** 0.06
22096 C 140.033145218465 24.969331674507828 79.51522464069066 C 0.0 **** -0.24
22097 H 139.79137877727368 25.488703489781585 80.44192419222 H 0.0 **** 0.06
22098 H 139.60893406030573 25.513541789065954 78.67134109783544 H 0.0 **** 0.06
22099 H 139.616272262113 23.962428836988124 79.54430744801753 H 0.0 **** 0.06
22100 H 141.11585629690035 24.91130256802768 79.4037233969495 H 0.0 **** 0.06
22101 C 61.320862422211164 78.0111760392835 96.8470058004566 C 0.0 **** -0.24
22102 H 61.02053289334236 77.30557891755141 96.07215544661597 H 0.0 **** 0.06
22103 H 61.21844327586976 77.54096307875082 97.82545983578046 H 0.0 **** 0.06
22104 H 60.68478273008603 78.89477952392177 96.79995606889537 H 0.0 **** 0.06
22105 H 62.35956071183632 78.30199418639626 96.69021660422965 H 0.0 **** 0.06
22106 C 81.56995165778659 55.524072127902 134.27845709174392 C 0.0 **** -0.24
22107 H 80.8871111774081 56.21154291477286 133.77938597800173 H 0.0 **** 0.06
22108 H 82.483603589314 56.05354467928397 134.5508560342494 H 0.0 **** 0.06
22109 H 81.81253836991205 54.70130228787745 133.60592927657402 H 0.0 **** 0.06
22110 H 81.09544552109864 55.130757869836145 135.17784189460545 H 0.0 **** 0.06
22111 C 148.8079162545582 140.1662032663846 97.88053838175571 C 0.0 **** -0.24
22112 H 149.10109782321427 139.94907756544393 98.90775802124168 H 0.0 **** 0.06
22113 H 149.53227069566117 140.84740899775613 97.43385775260691 H 0.0 **** 0.06
22114 H 147.82088078185012 140.6289517340022 97.87470529346763 H 0.0 **** 0.06
22115 H 148.77836780873398 139.2401701285952 97.30794458942458 H 0.0 **** 0.06
22116 C 7.887186592822843 6.624744072436442 102.64784565005687 C 0.0 **** -0.24
22117 H 7.210281741832212 6.802628674729249 101.81266898889999 H 0.0 **** 0.06
22118 H 8.811285598811338 7.18269493958536 102.49096004944332 H 0.0 **** 0.06
22119 H 8.1105534496227 5.560352070584997 102.71405798794913 H 0.0 **** 0.06
22120 H 7.416005924510273 6.955138291955848 103.57418449480582 H 0.0 **** 0.06
22121 C 87.86033232282117 7.308183709964169 171.73163460141285 C 0.0 **** -0.24
22122 H 87.06418810987701 7.903783721017049 172.17951654370722 H 0.0 **** 0.06
22123 H 88.12032821118804 6.488645654327144 172.40157691035836 H 0.0 **** 0.06
22124 H 88.7358755677893 7.936258425428036 171.5694854667283 H 0.0 **** 0.06
22125 H 87.51988851750968 6.904450245427597 170.7781360492741 H 0.0 **** 0.06
22126 C 70.62680200104185 106.93809922445035 48.31602302361165 C 0.0 **** -0.24
22127 H 71.63580589149451 106.88379062359951 47.90757608290721 H 0.0 **** 0.06
22128 H 70.49947269196002 107.88458021168452 48.84279452309249 H 0.0 **** 0.06
22129 H 70.47079780842994 106.11246351895312 49.009430928862685 H 0.0 **** 0.06
22130 H 69.90244312828729 106.8735371999067 47.504907670342504 H 0.0 **** 0.06
22131 C 89.2287188542341 29.86093714676757 45.32304244661459 C 0.0 **** -0.24
22132 H 90.22119989209398 29.941949843117996 45.765772051741536 H 0.0 **** 0.06
22133 H 89.10891944978005 28.872198752781372 44.879259055507674 H 0.0 **** 0.06
22134 H 89.11352423331766 30.621810296698172 44.550338449838534 H 0.0 **** 0.06
22135 H 88.47356069848104 30.008452137542932 46.09394751373003 H 0.0 **** 0.06
22136 C 115.14883831468211 135.0456721158642 142.30809546028667 C 0.0 **** -0.24
22137 H 115.92730598241388 135.58712258586024 142.8459724673628 H 0.0 **** 0.06
22138 H 115.07892292525537 135.4284760537564 141.2894006099093 H 0.0 **** 0.06
22139 H 114.19421060068424 135.18252859562378 142.8148502150616 H 0.0 **** 0.06
22140 H 115.39770686665344 133.98496430816706 142.28114057072094 H 0.0 **** 0.06
22141 C 167.47222665656602 68.20624781507 39.9841212237627 C 0.0 **** -0.24
22142 H 167.56035658533222 67.44325404796635 39.21057302381581 H 0.0 **** 0.06
22143 H 166.83164827955073 67.83836126973213 40.7855387263493 H 0.0 **** 0.06
22144 H 167.03730628594596 69.1100531235366 39.55624454943057 H 0.0 **** 0.06
22145 H 168.46042693250124 68.43387823397818 40.384143472654955 H 0.0 **** 0.06
22146 C 130.25648559843077 41.04990284848077 132.33852384372193 C 0.0 **** -0.24
22147 H 130.50094161186354 41.88292715788674 132.99814112781004 H 0.0 **** 0.06
22148 H 130.66037897362898 40.127012972064165 132.7545870584318 H 0.0 **** 0.06
22149 H 130.68968009464254 41.22642828791754 131.3546638708097 H 0.0 **** 0.06
22150 H 129.17312248953834 40.96545624047698 132.24759333797178 H 0.0 **** 0.06
22151 C 71.04149137275768 104.204010599823 40.998670037957254 C 0.0 **** -0.24
22152 H 70.93857530439301 103.60486364459672 40.09418267942357 H 0.0 **** 0.06
22153 H 70.75304562181167 105.23367183961852 40.7859919245511 H 0.0 **** 0.06
22154 H 72.07869111501086 104.17881772652308 41.33377780560414 H 0.0 **** 0.06
22155 H 70.39763400282857 103.79950449686359 41.77840116505649 H 0.0 **** 0.06
22156 C 136.18697923578603 106.97970335103577 64.4601689443995 C 0.0 **** -0.24
22157 H 136.14546558341 106.03456357437705 63.916882958870346 H 0.0 **** 0.06
22158 H 137.1704339898684 107.09235208191984 64.91696234097071 H 0.0 **** 0.06
22159 H 135.422732373381 106.98455346301677 65.23727472329912 H 0.0 **** 0.06
22160 H 136.00891904901303 107.8027768999574 63.769631016988626 H 0.0 **** 0.06
22161 C 86.02880499654961 128.05716111412124 11.113021411263162 C 0.0 **** -0.24
22162 H 85.20469868602538 128.18513764063977 11.815563232319448 H 0.0 **** 0.06
22163 H 86.52899187519193 129.01349959013675 10.962233566536838 H 0.0 **** 0.06
22164 H 85.64041550494872 127.69545405278973 10.160699090089565 H 0.0 **** 0.06
22165 H 86.73877386953069 127.33398299500027 11.51403610617291 H 0.0 **** 0.06
22166 C 22.08445047306202 106.01338005093066 5.386886492838357 C 0.0 **** -0.24
22167 H 22.387341631109337 106.23224444500411 6.410754894624404 H 0.0 **** 0.06
22168 H 21.103715456472003 106.44909022228074 5.19780016260853 H 0.0 **** 0.06
22169 H 22.036437455885107 104.93307688426037 5.245808373689016 H 0.0 **** 0.06
22170 H 22.811763006087773 106.43860634926085 4.694803926642578 H 0.0 **** 0.06
22171 C 88.94023333564382 0.3286104605861766 28.497871862402206 C 0.0 **** -0.24
22172 H 88.28287979305522 0.13212526512975842 27.651123339003277 H 0.0 **** 0.06
22173 H 89.77821433010595 -0.36897318664590983 28.476258751490576 H 0.0 **** 0.06
22174 H 88.38396453357416 0.20138756252868717 29.42629123131229 H 0.0 **** 0.06
22175 H 89.3168878235801 1.3500697795873933 28.43582777206717 H 0.0 **** 0.06
22176 C 72.58465749989671 129.74645335681515 71.22709587893934 C 0.0 **** -0.24
22177 H 73.37003211221062 130.23235093583966 70.6487426767448 H 0.0 **** 0.06
22178 H 72.49825862813756 128.7047432627021 70.91728543060452 H 0.0 **** 0.06
22179 H 71.6382895732781 130.257459301199 71.05555928473825 H 0.0 **** 0.06
22180 H 72.8348478015307 129.79112482242584 72.287186660895 H 0.0 **** 0.06
22181 C 133.2812112754153 147.90100184157143 68.6159992473842 C 0.0 **** -0.24
22182 H 133.93819350586944 148.58504450917593 68.07787826559516 H 0.0 **** 0.06
22183 H 133.30128632217964 148.14034636565046 69.67980252412627 H 0.0 **** 0.06
22184 H 133.62325849291273 146.877092881191 68.46725681789678 H 0.0 **** 0.06
22185 H 132.26377709043948 148.00297912306246 68.23936218141912 H 0.0 **** 0.06
22186 C 29.66315814739653 74.56369187117234 25.52744246291212 C 0.0 **** -0.24
22187 H 30.010141233714194 73.56770029400329 25.80345824943106 H 0.0 **** 0.06
22188 H 30.473437037451788 75.10980824765612 25.04427870952412 H 0.0 **** 0.06
22189 H 29.34687822797673 75.09919706632465 26.422642656043195 H 0.0 **** 0.06
22190 H 28.821330587995362 74.47696314283176 24.83966945940955 H 0.0 **** 0.06
22191 C 65.98168113236194 26.994887742629487 165.82000532474734 C 0.0 **** -0.24
22192 H 65.35341742716459 26.811469434145437 166.6919311473377 H 0.0 **** 0.06
22193 H 67.0177498322533 27.115950683593468 166.13916147806205 H 0.0 **** 0.06
22194 H 65.64767677227607 27.900287475997402 165.3148889528808 H 0.0 **** 0.06
22195 H 65.90872810268598 26.149153408594913 165.13547007603256 H 0.0 **** 0.06
22196 C 107.05385450396807 160.54028510427403 76.93869881355619 C 0.0 **** -0.24
22197 H 107.14366836181168 161.27092562159945 77.74238474868253 H 0.0 **** 0.06
22198 H 107.11501286185103 161.04967007735775 75.97718241796349 H 0.0 **** 0.06
22199 H 106.0954948526182 160.02871763082834 77.0194926507233 H 0.0 **** 0.06
22200 H 107.86241258387352 159.81325623826115 77.01734394147661 H 0.0 **** 0.06
22201 C 166.39872343655472 62.92315509156326 116.0040720010258 C 0.0 **** -0.24
22202 H 165.55191985098895 63.593912409593216 116.14602433801969 H 0.0 **** 0.06
22203 H 166.274115248757 62.37366380038091 115.07136878674243 H 0.0 **** 0.06
22204 H 166.44771023645558 62.219824045950276 116.83646131512666 H 0.0 **** 0.06
22205 H 167.31983907336416 63.50444879986044 115.96481913356905 H 0.0 **** 0.06
22206 C 7.9903414508648325 65.07622473309402 122.1891306334322 C 0.0 **** -0.24
22207 H 9.052655333660596 65.18063584992274 121.96475201509355 H 0.0 **** 0.06
22208 H 7.869805688418296 64.56101572487256 123.14275845831276 H 0.0 **** 0.06
22209 H 7.508218729936402 64.49910152380573 121.40073692488721 H 0.0 **** 0.06
22210 H 7.533605448789558 66.06370298612046 122.24880547163241 H 0.0 **** 0.06
22211 C 46.4840955705252 65.37680857573316 20.967509604884498 C 0.0 **** -0.24
22212 H 46.978849268074555 65.68806466928939 20.047332656707795 H 0.0 **** 0.06
22213 H 47.20311655847547 65.38618095182089 21.787353610640906 H 0.0 **** 0.06
22214 H 46.08608433528434 64.36971199510877 20.843256964143848 H 0.0 **** 0.06
22215 H 45.66842517151508 66.06461919063672 21.191660354117005 H 0.0 **** 0.06
22216 C 74.84913577740595 51.461385122199886 102.42030943777141 C 0.0 **** -0.24
22217 H 75.89063347354376 51.58597394388943 102.1267446025499 H 0.0 **** 0.06
22218 H 74.47068743776418 50.51873033500641 102.02460373924097 H 0.0 **** 0.06
22219 H 74.25754200344231 52.28579987688184 102.02242591241904 H 0.0 **** 0.06
22220 H 74.77664812791197 51.45387715004503 103.5082324028576 H 0.0 **** 0.06
22221 C 58.7537317401018 28.906454315536507 106.61306934993564 C 0.0 **** -0.24
22222 H 58.549343417541664 29.83606059217516 106.0829224474569 H 0.0 **** 0.06
22223 H 57.87275896160568 28.264424114211636 106.57455420297254 H 0.0 **** 0.06
22224 H 58.99843171111142 29.125841205936638 107.65232413116937 H 0.0 **** 0.06
22225 H 59.59509285377516 28.396783660231677 106.14205393213965 H 0.0 **** 0.06
22226 C 18.505808235354124 63.88090072351899 84.47744006743102 C 0.0 **** -0.24
22227 H 18.246790978131344 63.47186702877512 85.45359613028528 H 0.0 **** 0.06
22228 H 19.47262714865164 64.3819347875522 84.5391756487556 H 0.0 **** 0.06
22229 H 17.744651124929476 64.59742740965896 84.16912117611908 H 0.0 **** 0.06
22230 H 18.561268248847 63.07308002302236 83.74759892458177 H 0.0 **** 0.06
22231 C 80.66387048384246 127.00361094934499 111.07787821493378 C 0.0 **** -0.24
22232 H 80.84134314975793 125.97443612271272 111.3913903180648 H 0.0 **** 0.06
22233 H 79.60315879465843 127.1413318922967 110.86652813267327 H 0.0 **** 0.06
22234 H 81.2442736010188 127.21426756060228 110.1795229378549 H 0.0 **** 0.06
22235 H 80.96834392710828 127.68326646030695 111.87419380060751 H 0.0 **** 0.06
22236 C 69.00481620463725 95.20328414174065 60.581077315678755 C 0.0 **** -0.24
22237 H 69.20165000149707 96.27119290059832 60.48628002789361 H 0.0 **** 0.06
22238 H 68.26154601419476 94.90462522267791 59.840305742936934 H 0.0 **** 0.06
22239 H 68.6279044445225 94.99048418088248 61.58082270897768 H 0.0 **** 0.06
22240 H 69.92770531138055 94.64861385979543 60.413641534298804 H 0.0 **** 0.06
22241 C 152.62086609594283 54.44895852902428 41.85440159994164 C 0.0 **** -0.24
22242 H 153.31735327244286 55.18760148357339 42.25222870745705 H 0.0 **** 0.06
22243 H 152.48209312590134 53.65173269722473 42.585135642104774 H 0.0 **** 0.06
22244 H 153.02303721521267 54.03103270026833 40.931339528826925 H 0.0 **** 0.06
22245 H 151.66317390174527 54.926975250609814 41.65028683149069 H 0.0 **** 0.06
22246 C 53.64882795492761 154.23411548300726 139.1112928540664 C 0.0 **** -0.24
22247 H 53.80398268833363 155.263555334589 138.7871712607556 H 0.0 **** 0.06
22248 H 54.44724822580713 153.94647800962366 139.79742186557638 H 0.0 **** 0.06
22249 H 53.66037681917433 153.57514606893372 138.24391630299618 H 0.0 **** 0.06
22250 H 52.687528038409795 154.1537927346978 139.6176996873059 H 0.0 **** 0.06
22251 C 148.84995254403032 56.19793343021229 67.24870869105189 C 0.0 **** -0.24
22252 H 149.81101685500323 55.95688512283783 66.79441441469118 H 0.0 **** 0.06
22253 H 148.63202251540673 55.48175094689742 68.04106488750261 H 0.0 **** 0.06
22254 H 148.06837525266346 56.15133404723895 66.49080724502033 H 0.0 **** 0.06
22255 H 148.88968285127905 57.203579344379705 67.66833353270704 H 0.0 **** 0.06
22256 C 126.86904831845865 22.151121905286743 98.83204635595135 C 0.0 **** -0.24
22257 H 127.16251183310337 23.198790329855242 98.76728357518223 H 0.0 **** 0.06
22258 H 125.90590295747356 22.012311260854176 98.33916315227302 H 0.0 **** 0.06
22259 H 126.78668044874757 21.860909581031123 99.87992924674879 H 0.0 **** 0.06
22260 H 127.62109803451003 21.53247644940636 98.34180944960124 H 0.0 **** 0.06
22261 C 108.1796584880916 169.273068416881 9.611004411339422 C 0.0 **** -0.24
22262 H 107.31176235434145 169.85400447482783 9.29708592610416 H 0.0 **** 0.06
22263 H 109.01518305896204 169.94675048934204 9.80689826974907 H 0.0 **** 0.06
22264 H 108.45359384306772 168.57375443714415 8.822054146782818 H 0.0 **** 0.06
22265 H 107.93701711656271 168.72095606996606 10.518786487044224 H 0.0 **** 0.06
22266 C 100.66359442909243 80.04578857849155 13.573924889789652 C 0.0 **** -0.24
22267 H 99.92901116277883 80.83390276509668 13.410821801462134 H 0.0 **** 0.06
22268 H 100.61350957698713 79.32744487342097 12.754760037866674 H 0.0 **** 0.06
22269 H 100.44875870688708 79.5386484870168 14.515068743239198 H 0.0 **** 0.06
22270 H 101.66158377452163 80.48124451845459 13.615259545137746 H 0.0 **** 0.06
22271 C 102.68663850605176 37.35523080717462 28.623262620232367 C 0.0 **** -0.24
22272 H 102.59135590970078 38.02471924738765 27.76850263354271 H 0.0 **** 0.06
22273 H 103.46823753515562 37.724305051778316 29.28790791362195 H 0.0 **** 0.06
22274 H 102.94697423705745 36.35655324472589 28.275517654286062 H 0.0 **** 0.06
22275 H 101.73960646920366 37.31736383598388 29.16200709693007 H 0.0 **** 0.06
22276 C 97.79899435199869 162.58018090007434 120.52134358596425 C 0.0 **** -0.24
22277 H 98.31878550209558 163.07409243506595 121.34122753610899 H 0.0 **** 0.06
22278 H 98.46403774850313 161.8505737453594 120.0572811790127 H 0.0 **** 0.06
22279 H 97.50089040376909 163.32185904509026 119.78061844330347 H 0.0 **** 0.06
22280 H 96.91401698189512 162.07332657957454 120.90477533919415 H 0.0 **** 0.06
22281 C 82.65016410053732 34.07435646714322 156.45702453955295 C 0.0 **** -0.24
22282 H 83.24446544052228 33.18501183682497 156.24648418549637 H 0.0 **** 0.06
22283 H 82.28412758086398 34.031023464847266 157.48383014944687 H 0.0 **** 0.06
22284 H 81.80418849958647 34.11568642470988 155.77156463694698 H 0.0 **** 0.06
22285 H 83.267208160204 34.96306010478108 156.3278206945606 H 0.0 **** 0.06
22286 C 148.23655324458727 42.84976986192015 28.07653123828007 C 0.0 **** -0.24
22287 H 147.2170653478443 42.470436377500846 28.01750003642607 H 0.0 **** 0.06
22288 H 148.21636533647902 43.90522833595645 28.349923030473036 H 0.0 **** 0.06
22289 H 148.7232236143737 42.73490736974384 27.10732652290728 H 0.0 **** 0.06
22290 H 148.7900663743713 42.289587040088236 28.830119723856257 H 0.0 **** 0.06
22291 C 113.29189941586276 151.52059023369458 123.55309128256229 C 0.0 **** -0.24
22292 H 113.57619558807446 150.95561215503713 124.44052726739079 H 0.0 **** 0.06
22293 H 112.21702048820609 151.69902596876935 123.56518025824806 H 0.0 **** 0.06
22294 H 113.55595141721676 150.9516064774842 122.66127895358474 H 0.0 **** 0.06
22295 H 113.81909189189713 152.47452870205265 123.54517460619732 H 0.0 **** 0.06
22296 C 135.25055893177563 67.72552012566553 131.05036491274558 C 0.0 **** -0.24
22297 H 134.6464465017079 67.77297330841645 130.14471678419747 H 0.0 **** 0.06
22298 H 134.68868531418968 68.14874477952043 131.88356845432003 H 0.0 **** 0.06
22299 H 136.16954779779596 68.29307122458101 130.90521537373505 H 0.0 **** 0.06
22300 H 135.49631313151335 66.6856806395212 131.26888708094666 H 0.0 **** 0.06
22301 C 67.99268128645213 7.707594307603017 53.987524140080296 C 0.0 **** -0.24
22302 H 66.9606971432857 7.411468396339359 54.17687928284646 H 0.0 **** 0.06
22303 H 68.66596904375814 6.93362821456094 54.357959436014625 H 0.0 **** 0.06
22304 H 68.2009757961579 8.646958259416806 54.499734008796366 H 0.0 **** 0.06
22305 H 68.14284497058912 7.836945644363311 52.91530480248083 H 0.0 **** 0.06
22306 C 165.4823687988798 37.637119555036236 52.13409533813922 C 0.0 **** -0.24
22307 H 165.07374845442018 37.51233990418643 53.13664290558387 H 0.0 **** 0.06
22308 H 165.70575853220305 38.69034240897247 51.96176468588675 H 0.0 **** 0.06
22309 H 164.7549715246642 37.29415735792702 51.39868571989558 H 0.0 **** 0.06
22310 H 166.39715932534403 37.051160983664204 52.03959635008117 H 0.0 **** 0.06
22311 C 4.5495743325683975 105.80540342316388 90.82161434360171 C 0.0 **** -0.24
22312 H 4.996699169173297 106.11943934760953 89.87821463194778 H 0.0 **** 0.06
22313 H 4.638865104995745 104.72366131181963 90.92284850519975 H 0.0 **** 0.06
22314 H 3.496498542567764 106.0867398362742 90.83591099900752 H 0.0 **** 0.06
22315 H 5.067118262206236 106.29201149783881 91.64840515808754 H 0.0 **** 0.06
22316 C 47.06483313218797 49.6337669642225 83.01150561063685 C 0.0 **** -0.24
22317 H 46.42165841096312 49.07437631699119 83.69121038508564 H 0.0 **** 0.06
22318 H 48.078567042068414 49.23399772196767 83.05916422740101 H 0.0 **** 0.06
22319 H 47.07494698310296 50.684233004449965 83.30234920311557 H 0.0 **** 0.06
22320 H 46.685384738607695 49.54195711044028 81.99441514351064 H 0.0 **** 0.06
22321 C 89.10794375351965 49.87720608566879 96.55956079182675 C 0.0 **** -0.24
22322 H 89.76981223832756 50.47038150636156 97.19030892289061 H 0.0 **** 0.06
22323 H 88.27991839697091 49.49815500726942 97.15944786763166 H 0.0 **** 0.06
22324 H 89.6635569063393 49.041115402063355 96.13614545391292 H 0.0 **** 0.06
22325 H 88.71840376758344 50.50007097804486 95.75438683077334 H 0.0 **** 0.06
22326 C 101.24061499137204 88.14929868383244 145.46584393950238 C 0.0 **** -0.24
22327 H 100.43861550324019 88.28368713120217 146.19170877017373 H 0.0 **** 0.06
22328 H 101.41520691011794 87.08390987401773 145.31135585856327 H 0.0 **** 0.06
22329 H 102.15119742487133 88.61619876399075 145.84032773379198 H 0.0 **** 0.06
22330 H 100.95617003236185 88.61197269519934 144.52057729946551 H 0.0 **** 0.06
22331 C 129.64857870235417 41.442859009738754 40.59456430809706 C 0.0 **** -0.24
22332 H 130.6972889628093 41.377405881879895 40.30304777441381 H 0.0 **** 0.06
22333 H 129.10241379058962 40.59640464575375 40.17858585198002 H 0.0 **** 0.06
22334 H 129.224029543983 42.37248767756199 40.214575153258096 H 0.0 **** 0.06
22335 H 129.57255266749465 41.426195485319056 41.682047903410705 H 0.0 **** 0.06
22336 C 28.054293643622614 120.13261218532168 31.92926175483369 C 0.0 **** -0.24
22337 H 28.28681113785288 121.18626670737214 32.081780381976955 H 0.0 **** 0.06
22338 H 28.775192636499867 119.51942362497647 32.47061342873539 H 0.0 **** 0.06
22339 H 28.106184009561517 119.90010640099098 30.865334759375017 H 0.0 **** 0.06
22340 H 27.04955580387501 119.92446683446727 32.29851722357391 H 0.0 **** 0.06
22341 C 147.41217085693538 107.55025375767909 152.3234189846543 C 0.0 **** -0.24
22342 H 147.82889079253607 106.78238623286097 151.6709527637964 H 0.0 **** 0.06
22343 H 148.22194754908867 108.1512781662301 152.7375078200106 H 0.0 **** 0.06
22344 H 146.85937358567253 107.07670009276586 153.13438647579966 H 0.0 **** 0.06
22345 H 146.7413372494053 108.18847053026633 151.74981131502165 H 0.0 **** 0.06
22346 C 40.81307520742854 63.819725214602656 5.191969366894 C 0.0 **** -0.24
22347 H 41.70296519548941 63.86079703488204 4.563203016737219 H 0.0 **** 0.06
22348 H 40.90256215817675 62.99148738546799 5.894334191398372 H 0.0 **** 0.06
22349 H 39.93401097116089 63.67323749982236 4.564863645820623 H 0.0 **** 0.06
22350 H 40.714793420980754 64.7552794464334 5.742432944245195 H 0.0 **** 0.06
22351 C 4.573107534650092 74.27987214345785 162.81303428545425 C 0.0 **** -0.24
22352 H 4.5313852735280875 75.13190267042484 162.1355932343343 H 0.0 **** 0.06
22353 H 3.7100937839574613 73.63583113477 162.6392882730782 H 0.0 **** 0.06
22354 H 4.560685638918812 74.63412298451289 163.84337316136788 H 0.0 **** 0.06
22355 H 5.488888199685789 73.7167027918623 162.6333923095525 H 0.0 **** 0.06
22356 C 125.9033380706374 38.341293171236 118.93054429668959 C 0.0 **** -0.24
22357 H 125.00502076451735 38.74654710634704 118.4640279826323 H 0.0 **** 0.06
22358 H 126.58259064416833 39.15682116617526 119.18001820861389 H 0.0 **** 0.06
22359 H 126.393351590892 37.65639153700664 118.23965599710789 H 0.0 **** 0.06
22360 H 125.6290594086862 37.805783713672724 119.83980720684929 H 0.0 **** 0.06
22361 C 147.7624929441526 41.057229139329536 90.3206500247364 C 0.0 **** -0.24
22362 H 148.50364294113882 40.67656775971494 89.61852699037718 H 0.0 **** 0.06
22363 H 147.08819562164297 41.74117385904469 89.80296479994823 H 0.0 **** 0.06
22364 H 148.2668998171594 41.58708102455813 91.12888877662074 H 0.0 **** 0.06
22365 H 147.190914513167 40.225470087846304 90.73215234031963 H 0.0 **** 0.06
22366 C 125.5064814269671 102.15330389903312 120.0817345274437 C 0.0 **** -0.24
22367 H 124.45239923183021 102.41793773638125 119.99879575388422 H 0.0 **** 0.06
22368 H 125.74760533448415 101.38604676945172 119.34592004852192 H 0.0 **** 0.06
22369 H 125.70881940009895 101.77435408790961 121.08281371073159 H 0.0 **** 0.06
22370 H 126.11688236800921 103.03731564141475 119.89799256752289 H 0.0 **** 0.06
22371 C 150.55595218641747 102.47762799994251 48.5316686917882 C 0.0 **** -0.24
22372 H 149.8437426403636 102.91083402605119 47.82970838374956 H 0.0 **** 0.06
22373 H 151.38072536939225 102.0256874770362 47.979311753545105 H 0.0 **** 0.06
22374 H 150.05881383372085 101.71495850389337 49.130417270901845 H 0.0 **** 0.06
22375 H 150.94151647072067 103.25896320029472 49.18622935221748 H 0.0 **** 0.06
22376 C 110.78445712289698 166.78435388934244 84.7803503646158 C 0.0 **** -0.24
22377 H 110.72890345139106 167.68386516508733 84.16782328792436 H 0.0 **** 0.06
22378 H 110.00540329319162 166.08638412961471 84.47331366145534 H 0.0 **** 0.06
22379 H 110.64244832294673 167.05032582214352 85.82834303981267 H 0.0 **** 0.06
22380 H 111.762107527491 166.31810946058621 84.65344474135175 H 0.0 **** 0.06
22381 C 72.47491426436103 142.57540310273941 101.28191413155645 C 0.0 **** -0.24
22382 H 72.68686945567146 142.8029685858637 100.23693367750926 H 0.0 **** 0.06
22383 H 71.6827176054797 141.82832347788036 101.33633552912673 H 0.0 **** 0.06
22384 H 72.15327391565651 143.48365614976902 101.79185832704385 H 0.0 **** 0.06
22385 H 73.37408540510192 142.18880426845502 101.76027670280934 H 0.0 **** 0.06
22386 C 128.24844327693032 22.623376966676204 62.16083570518974 C 0.0 **** -0.24
22387 H 127.52257290344554 22.0578042966861 62.746380736209886 H 0.0 **** 0.06
22388 H 128.88973191290123 21.933203673476726 61.61245636426874 H 0.0 **** 0.06
22389 H 128.85749063505813 23.23264981498724 62.82863140516619 H 0.0 **** 0.06
22390 H 127.7233925440323 23.26925028515427 61.4570135884604 H 0.0 **** 0.06
22391 C 109.3426377960485 154.97081347899206 67.6685310636067 C 0.0 **** -0.24
22392 H 109.2331871752562 155.31166300981332 66.63976223638979 H 0.0 **** 0.06
22393 H 110.34011523504938 155.22105575592323 68.02952516447421 H 0.0 **** 0.06
22394 H 109.20227175138854 153.89044818134334 67.71017715333745 H 0.0 **** 0.06
22395 H 108.59596925217323 155.45873956873683 68.29510699979222 H 0.0 **** 0.06
22396 C 65.93460499550486 160.4292481627467 167.7481203908732 C 0.0 **** -0.24
22397 H 66.38521280815358 161.42100168884264 167.71661302564507 H 0.0 **** 0.06
22398 H 66.06673624734401 159.93966411529706 166.78367031139877 H 0.0 **** 0.06
22399 H 64.87122436286946 160.52037171204108 167.96776850095628 H 0.0 **** 0.06
22400 H 66.41722105605226 159.83671885453305 168.5263054481258 H 0.0 **** 0.06
22401 C 55.04022375167267 17.46875911340709 21.28034813545296 C 0.0 **** -0.24
22402 H 55.5547185026243 18.42502031757016 21.19438417930155 H 0.0 **** 0.06
22403 H 54.223381318554345 17.428884367076137 20.55940941249753 H 0.0 **** 0.06
22404 H 54.64019939104634 17.361109788793556 22.288697939096153 H 0.0 **** 0.06
22405 H 55.74198492739744 16.65948850457565 21.080059588086748 H 0.0 **** 0.06
22406 C 72.04512730577414 76.08848754303382 24.107144330871336 C 0.0 **** -0.24
22407 H 71.04350547778091 75.78023557765563 23.806118341420586 H 0.0 **** 0.06
22408 H 72.65419518076172 75.2052249776166 24.29862211080092 H 0.0 **** 0.06
22409 H 71.9829261461149 76.69071399924029 25.012981770946197 H 0.0 **** 0.06
22410 H 72.49864770459443 76.67793225868776 23.309650513627446 H 0.0 **** 0.06
22411 C 57.75911858378237 137.82413704976187 45.76331975861123 C 0.0 **** -0.24
22412 H 57.19112820919946 137.25267057343777 46.49701940360913 H 0.0 **** 0.06
22413 H 58.56321564502434 138.36123135761164 46.264589900995134 H 0.0 **** 0.06
22414 H 57.09913680862121 138.53643120969213 45.267916611179714 H 0.0 **** 0.06
22415 H 58.1814389307861 137.1456290235707 45.022256628827535 H 0.0 **** 0.06
22416 C 103.20138190299625 35.562910740395466 98.48833007315108 C 0.0 **** -0.24
22417 H 103.6976366358274 34.92362410733671 99.21763315875228 H 0.0 **** 0.06
22418 H 103.26812984936467 35.10835028251623 97.50028064877407 H 0.0 **** 0.06
22419 H 103.6849313659628 36.53999469393838 98.47316209674207 H 0.0 **** 0.06
22420 H 102.15305563924889 35.68133753975225 98.76400079742257 H 0.0 **** 0.06
22421 C 154.4528235045362 36.18050210621021 76.43522403056085 C 0.0 **** -0.24
22422 H 154.05470503357301 37.1421131836036 76.10934976056942 H 0.0 **** 0.06
22423 H 153.83143253983056 35.78276436200868 77.23793017628748 H 0.0 **** 0.06
22424 H 155.47247643438476 36.31518339661015 76.79776378036738 H 0.0 **** 0.06
22425 H 154.45399337131772 35.485284204379425 75.59622888076916 H 0.0 **** 0.06
22426 C 124.01226687551383 71.30677355831119 151.32146495150454 C 0.0 **** -0.24
22427 H 124.02698663030424 70.36321635407887 151.86774632550248 H 0.0 **** 0.06
22428 H 123.84645276542375 71.11073026368064 150.26224453714553 H 0.0 **** 0.06
22429 H 124.96743017878936 71.81682835355491 151.45101180673032 H 0.0 **** 0.06
22430 H 123.20958189288484 71.93603032142295 151.70482236358038 H 0.0 **** 0.06
22431 C 72.24006942321441 64.59770670611908 133.33515254092345 C 0.0 **** -0.24
22432 H 72.426493549347 65.55104394099531 132.84050281446284 H 0.0 **** 0.06
22433 H 72.89257936653938 64.5058758836453 134.20430678593607 H 0.0 **** 0.06
22434 H 72.44319140266754 63.781905293264245 132.64079260236656 H 0.0 **** 0.06
22435 H 71.19930807223474 64.55222221587131 133.65613721586493 H 0.0 **** 0.06
22436 C 64.98370624407471 91.48113712170868 25.627005153187554 C 0.0 **** -0.24
22437 H 64.69920397473018 92.26603206376643 26.326777640532327 H 0.0 **** 0.06
22438 H 65.96657999514804 91.7033197876724 25.21150396682333 H 0.0 **** 0.06
22439 H 64.25118903317104 91.43018302852647 24.820971393023854 H 0.0 **** 0.06
22440 H 65.01692053962671 90.52395002131419 26.147766962098217 H 0.0 **** 0.06
22441 C 20.134125913975367 153.61278811579058 169.46465026797887 C 0.0 **** -0.24
22442 H 20.04612518696669 152.90300517597723 170.28706210500434 H 0.0 **** 0.06
22443 H 19.50977871269736 153.28327140935306 168.633181962559 H 0.0 **** 0.06
22444 H 21.1734474090038 153.66687150876533 169.14066106899972 H 0.0 **** 0.06
22445 H 19.80552834480686 154.59741797636065 169.7978332070113 H 0.0 **** 0.06
22446 C 77.27908766333931 75.98332946960625 73.10153482899779 C 0.0 **** -0.24
22447 H 77.32786212474322 76.65577812938159 73.9585272805574 H 0.0 **** 0.06
22448 H 78.17408417175395 76.10813231292246 72.49171789290727 H 0.0 **** 0.06
22449 H 76.39771543486545 76.21895975004213 72.50564177485722 H 0.0 **** 0.06
22450 H 77.21739358777796 74.95361264309179 73.45182934463645 H 0.0 **** 0.06
22451 C 93.84367831560829 157.3916238379863 114.51056176640779 C 0.0 **** -0.24
22452 H 93.42778565093059 156.5995012723768 113.8865005778139 H 0.0 **** 0.06
22453 H 93.46551776683927 157.28906907989574 115.526794148423 H 0.0 **** 0.06
22454 H 93.54977384242576 158.36143286026996 114.1093064851618 H 0.0 **** 0.06
22455 H 94.93036578959851 157.31510415764424 114.51641159117335 H 0.0 **** 0.06
22456 C 67.86799475158745 34.155684132869965 4.1348370185451415 C 0.0 **** -0.24
22457 H 66.92279932330942 34.51077908261857 4.5455502591286745 H 0.0 **** 0.06
22458 H 67.72965509051849 33.159781776769876 3.714032053678892 H 0.0 **** 0.06
22459 H 68.61652350393427 34.11648759076576 4.9262222114605265 H 0.0 **** 0.06
22460 H 68.20172809120821 34.83817008567911 3.3524392929455757 H 0.0 **** 0.06
22461 C 4.848353405725305 141.9783293822205 116.13169081638347 C 0.0 **** -0.24
22462 H 5.193012621934699 142.83257550158663 116.71603046904141 H 0.0 **** 0.06
22463 H 5.708683939675353 141.41889273809613 115.76488134679073 H 0.0 **** 0.06
22464 H 4.257058765575962 142.3317817783204 115.28687353315786 H 0.0 **** 0.06
22465 H 4.234659308816738 141.33244216624522 116.75957889778829 H 0.0 **** 0.06
22466 C 53.785325782759955 116.10955977329286 97.38326937599251 C 0.0 **** -0.24
22467 H 54.27735480876599 116.08449908284405 96.41097796725427 H 0.0 **** 0.06
22468 H 54.278272354289044 115.40778752701789 98.05702720643293 H 0.0 **** 0.06
22469 H 52.738958494544235 115.82909803110726 97.26877547296056 H 0.0 **** 0.06
22470 H 53.849020888736035 117.11666523053648 97.79710842415778 H 0.0 **** 0.06
22471 C 153.11647223516798 41.808232468740414 44.29202919266004 C 0.0 **** -0.24
22472 H 153.63670778211994 42.675731359757606 43.8862609981708 H 0.0 **** 0.06
22473 H 152.04529018800687 42.00941476645846 44.32424585644782 H 0.0 **** 0.06
22474 H 153.47923280904723 41.60651146817844 45.29986875672087 H 0.0 **** 0.06
22475 H 153.30571284135755 40.9421797243823 43.6579946390421 H 0.0 **** 0.06
22476 C 70.15593306514927 122.23793566118178 113.96630163677631 C 0.0 **** -0.24
22477 H 70.76109246669029 123.10298669410545 113.69493657625077 H 0.0 **** 0.06
22478 H 70.20595116930576 122.0828360925691 115.04415946812105 H 0.0 **** 0.06
22479 H 70.53555403233747 121.35372932946197 113.45404947647216 H 0.0 **** 0.06
22480 H 69.12120985817586 122.41203578185218 113.67107592909787 H 0.0 **** 0.06
22481 C 75.78724066170993 120.20652979536902 154.39209732368886 C 0.0 **** -0.24
22482 H 75.45565944460233 120.22259957051565 153.3533259937688 H 0.0 **** 0.06
22483 H 76.47702699186223 119.37571370098465 154.53983227224077 H 0.0 **** 0.06
22484 H 74.92395098124626 120.08378354246693 155.04607780343608 H 0.0 **** 0.06
22485 H 76.29068276093999 121.14426544331971 154.62665453289478 H 0.0 **** 0.06
22486 C 91.71067026106385 75.5082870864652 142.4189881429041 C 0.0 **** -0.24
22487 H 91.93670091938824 76.53181356260473 142.71903130057777 H 0.0 **** 0.06
22488 H 92.22218820867784 74.81303629108015 143.08534160189043 H 0.0 **** 0.06
22489 H 92.04733458694932 75.34705440976825 141.39530004705662 H 0.0 **** 0.06
22490 H 90.63428257690947 75.34271297095734 142.47773326238956 H 0.0 **** 0.06
22491 C 117.63455766967272 50.02736717297752 122.89944661255512 C 0.0 **** -0.24
22492 H 116.85530832683736 50.46989781569533 123.51911043065374 H 0.0 **** 0.06
22493 H 118.55890377621355 49.955570845000494 123.4739792844583 H 0.0 **** 0.06
22494 H 117.80039978059605 50.65402510246702 122.02246459896938 H 0.0 **** 0.06
22495 H 117.32543345685957 49.032339026532284 122.58188819494521 H 0.0 **** 0.06
22496 C 20.38591995349657 142.6565307617071 76.990253701688 C 0.0 **** -0.24
22497 H 19.784179892443362 143.37264912272713 76.4301210453734 H 0.0 **** 0.06
22498 H 19.838369044163933 142.33831041999642 77.87795580737765 H 0.0 **** 0.06
22499 H 21.32291036108804 143.12549274593326 77.28956257320115 H 0.0 **** 0.06
22500 H 20.59602230206996 141.79032830947705 76.36251768148671 H 0.0 **** 0.06
22501 C 142.86515150617788 25.98402246790313 52.45699925679024 C 0.0 **** -0.24
22502 H 143.4869285358467 26.571596289037572 53.132734060762104 H 0.0 **** 0.06
22503 H 143.11677020505664 26.23146478224126 51.425292156690006 H 0.0 **** 0.06
22504 H 141.81456121282906 26.211700430361176 52.63925453180613 H 0.0 **** 0.06
22505 H 143.04293983190303 24.92286560055772 52.630182935715126 H 0.0 **** 0.06
22506 C 64.13655676846939 157.68664877842906 156.13512131322844 C 0.0 **** -0.24
22507 H 65.17805328017013 157.53800762403733 155.85193060410583 H 0.0 **** 0.06
22508 H 63.95904339052353 157.24051392307103 157.11439600210304 H 0.0 **** 0.06
22509 H 63.4881864806775 157.21320342944148 155.3974386758946 H 0.0 **** 0.06
22510 H 63.91934394137739 158.75334271034455 156.1770473350575 H 0.0 **** 0.06
22511 C 34.28805247551598 112.6758238046616 95.38150267513117 C 0.0 **** -0.24
22512 H 34.45039006146912 111.973388501297 94.56307651514666 H 0.0 **** 0.06
22513 H 33.54830226299468 112.26523979223629 96.06986712816743 H 0.0 **** 0.06
22514 H 33.92798987553708 113.62341097577632 94.98154686970207 H 0.0 **** 0.06
22515 H 35.226553234685895 112.83769267326124 95.9110184530222 H 0.0 **** 0.06
22516 C 57.541906736723206 93.68764019429591 40.45856229863452 C 0.0 **** -0.24
22517 H 58.302072485837414 94.17828547714961 39.84989617338306 H 0.0 **** 0.06
22518 H 57.8807706151631 92.68663703605878 40.725352725023896 H 0.0 **** 0.06
22519 H 56.61278039844365 93.61917484324272 39.893782787899056 H 0.0 **** 0.06
22520 H 57.37372459321699 94.26786605843904 41.365482846444536 H 0.0 **** 0.06
22521 C 169.2899416377356 48.91084037742576 120.81384631797638 C 0.0 **** -0.24
22522 H 169.45423155321197 49.402805096970724 119.85513847692417 H 0.0 **** 0.06
22523 H 169.34207257664033 49.65024279866472 121.61452145625441 H 0.0 **** 0.06
22524 H 170.05775282010268 48.152771804644715 120.96941373298088 H 0.0 **** 0.06
22525 H 168.3074733139679 48.439869866343116 120.81699696615237 H 0.0 **** 0.06
22526 C 2.200033970093564 75.12641804687512 13.935166332514825 C 0.0 **** -0.24
22527 H 2.1051131769783993 75.60424459144153 14.91001299165606 H 0.0 **** 0.06
22528 H 2.1564949028774905 75.88382541994652 13.15258048862296 H 0.0 **** 0.06
22529 H 1.3848932373374865 74.41544404401996 13.798803763916311 H 0.0 **** 0.06
22530 H 3.153759625371201 74.60012276996078 13.880185582512865 H 0.0 **** 0.06
22531 C 154.59924144671174 6.637874414881978 70.17728853738242 C 0.0 **** -0.24
22532 H 155.6266286176858 6.643033791238764 70.54187758989212 H 0.0 **** 0.06
22533 H 154.0523986616195 5.8178599757966225 70.64361620758638 H 0.0 **** 0.06
22534 H 154.5982918755571 6.507487720477457 69.09533401893952 H 0.0 **** 0.06
22535 H 154.12034295991552 7.5835611168609915 70.42888951996252 H 0.0 **** 0.06
22536 C 46.29198148236526 137.54097612359118 153.5134553127818 C 0.0 **** -0.24
22537 H 45.32619458336558 137.31138776945886 153.06384656682678 H 0.0 **** 0.06
22538 H 46.45248960360152 136.89571220114252 154.37733192841853 H 0.0 **** 0.06
22539 H 46.304668449671 138.58324370361458 153.83181126135 H 0.0 **** 0.06
22540 H 47.08215714295466 137.37445423969672 152.78236911370215 H 0.0 **** 0.06
22541 C 91.20284827264264 142.12161545905096 125.33601516334227 C 0.0 **** -0.24
22542 H 91.43860831835096 142.11840078542053 124.27142976282335 H 0.0 **** 0.06
22543 H 90.69254383036622 141.19496683728465 125.5971125962339 H 0.0 **** 0.06
22544 H 90.55650420366098 142.96982695967282 125.56148529116783 H 0.0 **** 0.06
22545 H 92.12440663298906 142.20439675518165 125.91222313925198 H 0.0 **** 0.06
22546 C 158.85594128146911 72.66757151716895 65.0312951947498 C 0.0 **** -0.24
22547 H 159.90677901018014 72.57784102157953 65.3063291689838 H 0.0 **** 0.06
22548 H 158.23690258838698 72.56276663633273 65.92216679675064 H 0.0 **** 0.06
22549 H 158.59970280980158 71.88584485697189 64.31555188484832 H 0.0 **** 0.06
22550 H 158.68168511878798 73.64416665541366 64.57965384345009 H 0.0 **** 0.06
22551 C 108.9786557192258 127.3619090615015 36.90153641879587 C 0.0 **** -0.24
22552 H 109.25981772116168 127.27862721697355 37.95090681189106 H 0.0 **** 0.06
22553 H 109.28231450028775 126.45855516910612 36.37170125634648 H 0.0 **** 0.06
22554 H 109.47293413775031 128.22689919287694 36.460093237000024 H 0.0 **** 0.06
22555 H 107.89793075302558 127.482048025507 36.82373942949039 H 0.0 **** 0.06
22556 C 97.63041499466323 6.363747045677883 45.221101043642335 C 0.0 **** -0.24
22557 H 98.0462982081969 6.766338727376819 44.29766275850359 H 0.0 **** 0.06
22558 H 97.25300928571926 5.35666017576807 45.04096725893348 H 0.0 **** 0.06
22559 H 96.81508821375081 7.002896038278266 45.56049609448834 H 0.0 **** 0.06
22560 H 98.40756887571553 6.330151622100175 45.98439087502027 H 0.0 **** 0.06
22561 C 154.6429801570821 59.19535432577338 51.58816760432313 C 0.0 **** -0.24
22562 H 155.58742398818157 58.981336919750305 52.08788309119285 H 0.0 **** 0.06
22563 H 154.4531623046164 60.268928498310075 51.61473633339648 H 0.0 **** 0.06
22564 H 153.83516506143457 58.670521232403416 52.09776859466092 H 0.0 **** 0.06
22565 H 154.69704433377115 58.86172772594769 50.552107022551525 H 0.0 **** 0.06
22566 C 36.52331950950321 153.91984057125728 134.61961902460047 C 0.0 **** -0.24
22567 H 35.718462062844594 154.6537389218841 134.56957995013678 H 0.0 **** 0.06
22568 H 36.75205034242131 153.7021454449632 135.66392802302292 H 0.0 **** 0.06
22569 H 37.41050640082082 154.3194374312156 134.12829432898792 H 0.0 **** 0.06
22570 H 36.21107315386928 153.00428893158448 134.11791136561044 H 0.0 **** 0.06
22571 C 154.73156381336247 51.53293930566463 3.665618404668521 C 0.0 **** -0.24
22572 H 155.2506107581683 52.47934625602585 3.5141313201170306 H 0.0 **** 0.06
22573 H 155.10562992259526 50.79529366012264 2.9558151742006658 H 0.0 **** 0.06
22574 H 153.66151910373566 51.677035361640606 3.51227283480074 H 0.0 **** 0.06
22575 H 154.90802410653936 51.18115946594793 4.682156105914203 H 0.0 **** 0.06
22576 C 33.63452082458174 144.7833947774903 95.75203332706906 C 0.0 **** -0.24
22577 H 34.558982420301206 145.35357958109637 95.83944163685499 H 0.0 **** 0.06
22578 H 33.3505178979384 144.70833840999728 94.70184377526002 H 0.0 **** 0.06
22579 H 32.84296038365996 145.2871410237376 96.30762940181324 H 0.0 **** 0.06
22580 H 33.784545699901486 143.7832413860677 96.15967157359276 H 0.0 **** 0.06
22581 C 160.93641158188288 59.37629228949088 54.300191243955396 C 0.0 **** -0.24
22582 H 161.30708562278755 59.6276631653798 55.293800632001805 H 0.0 **** 0.06
22583 H 160.18319728519018 60.104631010283995 53.99891872737719 H 0.0 **** 0.06
22584 H 160.49149942628165 58.38062833181053 54.320308071839435 H 0.0 **** 0.06
22585 H 161.76179465212843 59.39111881200034 53.588405358324366 H 0.0 **** 0.06
22586 C 9.979315262092818 44.77048962403205 159.95796930939946 C 0.0 **** -0.24
22587 H 10.105678131511027 45.38447243321406 159.06632435950746 H 0.0 **** 0.06
22588 H 10.436970517585664 43.794899187616 159.79538659167946 H 0.0 **** 0.06
22589 H 8.916251205850507 44.64373345135918 160.16350976497705 H 0.0 **** 0.06
22590 H 10.457562079422217 45.25996938354923 160.80631577691963 H 0.0 **** 0.06
22591 C 60.02027649923505 86.34396229790457 68.11679877959604 C 0.0 **** -0.24
22592 H 59.254203296516366 85.68421073678314 67.7123104052062 H 0.0 **** 0.06
22593 H 61.00685210458731 85.96613130441426 67.8453534869813 H 0.0 **** 0.06
22594 H 59.931442929674105 86.38158716012998 69.20309210381915 H 0.0 **** 0.06
22595 H 59.88986093284957 87.34571114072008 67.70690948650316 H 0.0 **** 0.06
22596 C 85.79659065845419 4.463508380369333 124.35961207707075 C 0.0 **** -0.24
22597 H 86.2931729260311 4.834082314110404 123.46282325160365 H 0.0 **** 0.06
22598 H 86.12456019178589 3.44364347840132 124.56184650909748 H 0.0 **** 0.06
22599 H 84.71778335347092 4.475467827676518 124.20882110800366 H 0.0 **** 0.06
22600 H 86.05212488495103 5.101814298654567 125.20560203444046 H 0.0 **** 0.06
22601 C 66.30448725928062 9.608081321781697 145.48145574555892 C 0.0 **** -0.24
22602 H 66.36065147914911 10.517856962572239 146.07818769228592 H 0.0 **** 0.06
22603 H 67.31062911258377 9.30256759763654 145.19122450937823 H 0.0 **** 0.06
22604 H 65.70907386404781 9.79463774202739 144.58812391741037 H 0.0 **** 0.06
22605 H 65.84039275227036 8.81665855341663 146.06963043354125 H 0.0 **** 0.06
22606 C 36.47138763036139 139.78233629522876 14.211749726832636 C 0.0 **** -0.24
22607 H 36.517818447868876 138.7266218435895 14.479520839613372 H 0.0 **** 0.06
22608 H 37.367539922170266 140.05509864277573 13.653414712659583 H 0.0 **** 0.06
22609 H 36.41169820249195 140.38431262261673 15.118384081742647 H 0.0 **** 0.06
22610 H 35.59002264899158 139.9631427642429 13.596475825118432 H 0.0 **** 0.06
22611 C 149.45451799059418 52.38822605725176 2.2881583454626764 C 0.0 **** -0.24
22612 H 149.37556425255002 51.76464585669078 3.178679668094844 H 0.0 **** 0.06
22613 H 150.5058337472921 52.54039057886524 2.0433557108069635 H 0.0 **** 0.06
22614 H 148.9817216714285 53.35172420378359 2.4770210769847267 H 0.0 **** 0.06
22615 H 148.95441099615516 51.89530460902603 1.4535208974759541 H 0.0 **** 0.06
22616 C 27.644226521003418 102.81258805314957 19.07671081475371 C 0.0 **** -0.24
22617 H 27.62145012483387 103.88551683363613 19.267137306454885 H 0.0 **** 0.06
22618 H 27.746970019234084 102.63491375930533 18.00602420568532 H 0.0 **** 0.06
22619 H 26.719662066297417 102.36060027326778 19.433811304686685 H 0.0 **** 0.06
22620 H 28.491555517965082 102.36860289562725 19.60160890561309 H 0.0 **** 0.06
22621 C 124.10373564905396 14.114626628110216 50.97411708937119 C 0.0 **** -0.24
22622 H 124.72804457987553 13.430172944650629 51.54789028585685 H 0.0 **** 0.06
22623 H 123.95382780369704 13.714712398716124 49.97068574399346 H 0.0 **** 0.06
22624 H 124.59378749782937 15.085844653672268 50.90951133872727 H 0.0 **** 0.06
22625 H 123.13923627200518 14.226979180403305 51.4689827595425 H 0.0 **** 0.06
22626 C 116.54300940674148 4.1123138362474165 38.6596135141005 C 0.0 **** -0.24
22627 H 116.57679310525333 3.0708722417814656 38.33851497342634 H 0.0 **** 0.06
22628 H 116.40491726974784 4.154472431032254 39.73992383730837 H 0.0 **** 0.06
22629 H 115.71211657705038 4.616822324484886 38.16613657941703 H 0.0 **** 0.06
22630 H 117.47809802046294 4.6053366798090565 38.392170118270826 H 0.0 **** 0.06
22631 C 169.03593038841979 41.66696469542313 19.075954146170943 C 0.0 **** -0.24
22632 H 169.93581928187268 41.138603215476195 19.391782150035624 H 0.0 **** 0.06
22633 H 168.1572228547424 41.08299882750481 19.349682331569625 H 0.0 **** 0.06
22634 H 169.05717977981362 41.80734233723169 17.995362753183713 H 0.0 **** 0.06
22635 H 168.99401230716845 42.63850808030239 19.568243195387765 H 0.0 **** 0.06
22636 C 15.6141809439765 60.165623895301394 142.05494048982965 C 0.0 **** -0.24
22637 H 16.121185677928217 59.346518364373765 141.54537744062463 H 0.0 **** 0.06
22638 H 15.568335029184396 59.95525064040318 143.12400712158416 H 0.0 **** 0.06
22639 H 14.602971122866464 60.268094649605814 141.6618557507448 H 0.0 **** 0.06
22640 H 16.163963382146285 61.091988409560884 141.88975201821665 H 0.0 **** 0.06
22641 C 130.6581219765215 135.2134339147687 102.1013435200168 C 0.0 **** -0.24
22642 H 130.4416253380894 134.3289005678346 102.70098021766464 H 0.0 **** 0.06
22643 H 130.11074458250997 136.0657370684259 102.50234660319603 H 0.0 **** 0.06
22644 H 130.35219108790946 135.0358869397645 101.06966838399708 H 0.0 **** 0.06
22645 H 131.7279808236443 135.4202699310085 102.13296791513687 H 0.0 **** 0.06
22646 C 12.397082176579772 124.70722666173333 64.22753288547926 C 0.0 **** -0.24
22647 H 12.389160807071733 125.7595104735089 63.94318412140433 H 0.0 **** 0.06
22648 H 11.380387896603537 124.31445226860484 64.19283085018583 H 0.0 **** 0.06
22649 H 12.790917406432243 124.60796063983355 65.23825748177501 H 0.0 **** 0.06
22650 H 13.0279724936658 124.14836731999912 63.53559007157344 H 0.0 **** 0.06
22651 C 12.768821829717176 11.238829675848322 71.18765679021462 C 0.0 **** -0.24
22652 H 12.304246552819741 11.187825752381762 70.20293368337266 H 0.0 **** 0.06
22653 H 13.616925160679031 10.553753692863921 71.22451970725717 H 0.0 **** 0.06
22654 H 12.039441760153359 10.955693852406021 71.94703879206092 H 0.0 **** 0.06
22655 H 13.113054554887178 12.254880142849345 71.37553550109041 H 0.0 **** 0.06
22656 C 113.28121396489729 108.47253393769873 76.38920773355264 C 0.0 **** -0.24
22657 H 113.73437634844049 107.73719706367575 77.05375472933035 H 0.0 **** 0.06
22658 H 114.04553444206516 109.16814024516054 76.04280730532655 H 0.0 **** 0.06
22659 H 112.50809274341395 109.02140278441456 76.92806187476613 H 0.0 **** 0.06
22660 H 112.8368518971256 107.96440189306122 75.53444033119086 H 0.0 **** 0.06
22661 C 81.78219464360936 29.246874862498828 161.6786379256479 C 0.0 **** -0.24
22662 H 82.06096556918675 28.305193543666206 161.20723341714572 H 0.0 **** 0.06
22663 H 82.12964857048553 30.078135765518994 161.06378647110157 H 0.0 **** 0.06
22664 H 82.24058756878554 29.308912613524114 162.665749588971 H 0.0 **** 0.06
22665 H 80.69813407931366 29.29751055193259 161.77699892413253 H 0.0 **** 0.06
22666 C 75.26530374192703 120.61635516434922 164.13017156963082 C 0.0 **** -0.24
22667 H 76.19646022422988 121.16757418858808 163.99751265091714 H 0.0 **** 0.06
22668 H 74.5905534215984 121.19200056289372 164.76466790309192 H 0.0 **** 0.06
22669 H 75.47509494357281 119.65496811213174 164.59824928990437 H 0.0 **** 0.06
22670 H 74.7998210905069 120.45309560614899 163.1576930715912 H 0.0 **** 0.06
22671 C 40.32576658750112 52.38516426548631 83.45392750347834 C 0.0 **** -0.24
22672 H 40.90116427128781 52.62954028698488 84.34662960380199 H 0.0 **** 0.06
22673 H 39.80958900291506 51.435925998886546 83.60240187664296 H 0.0 **** 0.06
22674 H 40.99855033373106 52.303453365590826 82.59919210903375 H 0.0 **** 0.06
22675 H 39.59415066379988 53.17069105471751 83.26661768269635 H 0.0 **** 0.06
22676 C 56.45964504193168 93.57168782219907 145.69351858393892 C 0.0 **** -0.24
22677 H 56.987611111913765 92.99896872870383 144.9303751616512 H 0.0 **** 0.06
22678 H 55.44770447361056 93.18136247869955 145.80532922350974 H 0.0 **** 0.06
22679 H 56.41365109309113 94.61860041558543 145.39375574332593 H 0.0 **** 0.06
22680 H 56.98885564612456 93.48767097459984 146.64228961428864 H 0.0 **** 0.06
22681 C 163.27744113076562 71.2536402060726 6.837122301279777 C 0.0 **** -0.24
22682 H 164.35813552646908 71.1214880420193 6.799738130668715 H 0.0 **** 0.06
22683 H 162.81095670894047 70.65708154353287 6.053247166384239 H 0.0 **** 0.06
22684 H 163.03415644809303 72.30599408148092 6.687669655265864 H 0.0 **** 0.06
22685 H 162.90587141680913 70.93072801025014 7.810081638128452 H 0.0 **** 0.06
22686 C 73.49308954476248 0.544292452238949 2.0369493507305947 C 0.0 **** -0.24
22687 H 73.63070698198402 1.1833376391465222 1.1650750147422286 H 0.0 **** 0.06
22688 H 72.59305322731177 0.8480535884477121 2.5711908453537546 H 0.0 **** 0.06
22689 H 74.35571858206293 0.6387772755290939 2.6956806433896645 H 0.0 **** 0.06
22690 H 73.39335777020028 -0.4925475303577258 1.7150974876481655 H 0.0 **** 0.06
22691 C 65.20474949378453 5.607015008951294 170.36788825668273 C 0.0 **** -0.24
22692 H 66.040564124264 5.526657552260922 171.06351444294944 H 0.0 **** 0.06
22693 H 64.83889360940617 4.609575814212491 170.12393392943926 H 0.0 **** 0.06
22694 H 65.53670127536645 6.105201550859327 169.45766776958766 H 0.0 **** 0.06
22695 H 64.4044482142325 6.185469789536626 170.8286898354619 H 0.0 **** 0.06
22696 C 72.40048260847941 158.1922674600039 98.02061958557005 C 0.0 **** -0.24
22697 H 73.1465714142437 157.42424400358834 97.81360827063025 H 0.0 **** 0.06
22698 H 72.16076446498285 158.18860407409508 99.0844339520716 H 0.0 **** 0.06
22699 H 71.4982964968183 157.98632800492408 97.44418454112014 H 0.0 **** 0.06
22700 H 72.79611626052723 159.16849149218484 97.74027722669405 H 0.0 **** 0.06
22701 C 167.3774966387658 111.25608157928247 102.04871787909246 C 0.0 **** -0.24
22702 H 166.84695301239177 111.6172116893593 101.167611930329 H 0.0 **** 0.06
22703 H 168.32863427379615 110.81794101380919 101.7453744361959 H 0.0 **** 0.06
22704 H 166.77317958074005 110.50120665189746 102.55205070151857 H 0.0 **** 0.06
22705 H 167.56053934709348 112.08861780059732 102.72780622621582 H 0.0 **** 0.06
22706 C 72.43534497330614 107.19422354131802 55.54628926272409 C 0.0 **** -0.24
22707 H 73.36231237093077 106.910631604255 56.04380430488885 H 0.0 **** 0.06
22708 H 71.58674361105726 106.87290463830678 56.15008067610631 H 0.0 **** 0.06
22709 H 72.3878541679083 106.71744036862648 54.56702340155215 H 0.0 **** 0.06
22710 H 72.40570725028861 108.27776630302924 55.42447415342713 H 0.0 **** 0.06
22711 C 153.38552155490433 130.78441300610382 149.56399202938456 C 0.0 **** -0.24
22712 H 153.28007789286443 129.9451552093255 150.25159305781693 H 0.0 **** 0.06
22713 H 152.90789385176723 131.6666479657378 149.99083210923138 H 0.0 **** 0.06
22714 H 152.91091450963586 130.53654439934047 148.61408070874973 H 0.0 **** 0.06
22715 H 154.44357027431116 130.98793968385024 149.39948069335188 H 0.0 **** 0.06
22716 C 111.05393367358661 150.8928251372696 148.2823236642322 C 0.0 **** -0.24
22717 H 111.81458248836256 150.1132940969477 148.2518130565744 H 0.0 **** 0.06
22718 H 110.08617961299782 150.44646340225393 148.51076503768968 H 0.0 **** 0.06
22719 H 111.00553624021694 151.39150982015332 147.31447736919435 H 0.0 **** 0.06
22720 H 111.3102707383949 151.62044133221997 149.05330564030126 H 0.0 **** 0.06
22721 C 97.01198195718462 167.74160360781696 8.6011593216071 C 0.0 **** -0.24
22722 H 97.36238964874076 167.20792426843957 9.484714640812058 H 0.0 **** 0.06
22723 H 97.7694635389733 168.45899922434373 8.285419922228527 H 0.0 **** 0.06
22724 H 96.08768406026059 168.26890964920224 8.837656525084753 H 0.0 **** 0.06
22725 H 96.82847354397722 167.02919192343285 7.79709686841619 H 0.0 **** 0.06
22726 C 113.66217788452019 10.81243886621963 66.70286238550496 C 0.0 **** -0.24
22727 H 114.00789014472105 9.88580156069169 67.16049270367772 H 0.0 **** 0.06
22728 H 113.09161678165498 11.387216675176035 67.43240860370877 H 0.0 **** 0.06
22729 H 113.030046151748 10.581210680348782 65.84569660528703 H 0.0 **** 0.06
22730 H 114.52237237811335 11.396813887766456 66.37296920185997 H 0.0 **** 0.06
22731 C 114.75237529558481 129.4159020486019 134.76786315722987 C 0.0 **** -0.24
22732 H 114.09276732421472 129.58048645764046 135.61897092843498 H 0.0 **** 0.06
22733 H 114.17239661544397 129.45692056307502 133.84565959583253 H 0.0 **** 0.06
22734 H 115.22285461783727 128.4358895978639 134.85737313324591 H 0.0 **** 0.06
22735 H 115.5215810165013 130.18796939941285 134.74873855159174 H 0.0 **** 0.06
22736 C 78.7975723870716 79.40549597494957 49.6303366632726 C 0.0 **** -0.24
22737 H 79.82277738662975 79.63531861446005 49.92133401820465 H 0.0 **** 0.06
22738 H 78.10931243820653 80.02984707012376 50.199834802467336 H 0.0 **** 0.06
22739 H 78.5888584877278 78.35594385624638 49.83319866636084 H 0.0 **** 0.06
22740 H 78.66982554387158 79.60194001440233 48.56507391967669 H 0.0 **** 0.06
22741 C 143.55392467378283 135.67839172582137 108.53368991794977 C 0.0 **** -0.24
22742 H 142.64779171339893 135.58342372912128 107.93642089390966 H 0.0 **** 0.06
22743 H 143.33619970945244 136.2483287866448 109.43706015070444 H 0.0 **** 0.06
22744 H 144.31842373751056 136.19476472467127 107.95342766318512 H 0.0 **** 0.06
22745 H 143.91442875999508 134.68628466390277 108.8081723541986 H 0.0 **** 0.06
22746 C 48.74479219658332 150.31494668811223 141.76095151632887 C 0.0 **** -0.24
22747 H 48.12526982316564 149.63417133459996 141.17642593510345 H 0.0 **** 0.06
22748 H 49.66919314768194 150.5203050166316 141.22045355724254 H 0.0 **** 0.06
22749 H 48.979479199640934 149.85790820277083 142.72276701060542 H 0.0 **** 0.06
22750 H 48.204399211927694 151.24753352698826 141.9247056241777 H 0.0 **** 0.06
22751 C 148.3729775342316 9.998522307662228 141.75744396164774 C 0.0 **** -0.24
22752 H 147.73563509973826 10.81528748912163 142.0963797180414 H 0.0 **** 0.06
22753 H 148.64716116773724 9.373944872977063 142.60705594403336 H 0.0 **** 0.06
22754 H 149.27455696200377 10.40813116136681 141.3018725519933 H 0.0 **** 0.06
22755 H 147.83482201242768 9.39947712145812 141.0226346715059 H 0.0 **** 0.06
22756 C 144.68069924386947 171.32980095034546 76.23512913065584 C 0.0 **** -0.24
22757 H 144.60688048461412 171.72447656811366 75.22163214462772 H 0.0 **** 0.06
22758 H 145.58852621056735 171.70782989582455 76.70591413090796 H 0.0 **** 0.06
22759 H 144.71603778537605 170.24093852034966 76.19816989931344 H 0.0 **** 0.06
22760 H 143.81212620319315 171.64651240486063 76.81254311856918 H 0.0 **** 0.06
22761 C 87.84021222138689 60.61956426563563 29.919271629758086 C 0.0 **** -0.24
22762 H 87.3316931755682 59.664039489279276 29.79306564211386 H 0.0 **** 0.06
22763 H 88.26644730537434 60.931972850947915 28.96562613423356 H 0.0 **** 0.06
22764 H 88.63630219236732 60.51297259701619 30.655822473933924 H 0.0 **** 0.06
22765 H 87.12608056319432 61.36832988287031 30.26265075338509 H 0.0 **** 0.06
22766 C 163.23828084373392 66.95463723797542 154.5629753845134 C 0.0 **** -0.24
22767 H 163.11232682831863 66.2205609755559 155.3582733083349 H 0.0 **** 0.06
22768 H 163.86815235972742 67.77052502118514 154.9178897279614 H 0.0 **** 0.06
22769 H 162.26353318927758 67.34679059693666 154.27318592228966 H 0.0 **** 0.06
22770 H 163.70923165416346 66.47958810783237 153.70165263560912 H 0.0 **** 0.06
22771 C 18.475541483770613 142.20221657765993 172.60927237204442 C 0.0 **** -0.24
22772 H 19.159047366117044 142.72028265404194 171.93768515327636 H 0.0 **** 0.06
22773 H 19.04779406551433 141.63306355046086 173.3428840138568 H 0.0 **** 0.06
22774 H 17.84628207708294 141.52322738893878 172.03419632955584 H 0.0 **** 0.06
22775 H 17.84859141428487 142.93154321260923 173.1228086139231 H 0.0 **** 0.06
22776 C 63.92603739094301 89.41196983196251 112.82654341741883 C 0.0 **** -0.24
22777 H 64.40018478514726 89.30916511128518 113.80298063653396 H 0.0 **** 0.06
22778 H 64.36471478183434 88.69463337116825 112.13313031819402 H 0.0 **** 0.06
22779 H 64.08212456565445 90.42365710819524 112.45160363046432 H 0.0 **** 0.06
22780 H 62.8568692983017 89.2206080435257 112.92043406267967 H 0.0 **** 0.06
22781 C 130.61491750743923 134.42096986553844 119.50774175041826 C 0.0 **** -0.24
22782 H 130.39796438762562 133.36445916229425 119.6635289366998 H 0.0 **** 0.06
22783 H 131.27531966776675 134.77627886742616 120.29962351086664 H 0.0 **** 0.06
22784 H 129.68613487105907 134.98933384267764 119.52572313220716 H 0.0 **** 0.06
22785 H 131.10260687071255 134.5519501281682 118.54207026153105 H 0.0 **** 0.06
22786 C 4.037752909102323 11.1956324885183 40.28083080879321 C 0.0 **** -0.24
22787 H 3.8898463740536044 11.365411411474014 39.21412045806596 H 0.0 **** 0.06
22788 H 3.077840676109247 11.257846117285055 40.79388749794509 H 0.0 **** 0.06
22789 H 4.71286431700139 11.951875864747876 40.67881406357469 H 0.0 **** 0.06
22790 H 4.468281004809683 10.20582622980342 40.434555662948924 H 0.0 **** 0.06
22791 C 93.53176312154613 118.76866404731985 45.13912700187325 C 0.0 **** -0.24
22792 H 94.30639380391449 119.52785325812755 45.25089576222274 H 0.0 **** 0.06
22793 H 92.83031534886385 118.84014201099308 45.97072433496112 H 0.0 **** 0.06
22794 H 93.99194308333955 117.77974532907731 45.134187111609435 H 0.0 **** 0.06
22795 H 93.0013671951935 118.92647183427297 44.200724629250885 H 0.0 **** 0.06
22796 C 80.20986493228972 147.6908722509884 92.9364662061408 C 0.0 **** -0.24
22797 H 79.37951026650025 147.31081515333966 93.53053680937225 H 0.0 **** 0.06
22798 H 79.99818855533108 147.53956405225932 91.87792658554176 H 0.0 **** 0.06
22799 H 81.12179088391383 147.1580075340582 93.20473551302277 H 0.0 **** 0.06
22800 H 80.33997002341353 148.7551022642964 93.13266591662654 H 0.0 **** 0.06
22801 C 77.12785113750887 15.470298233108856 4.306777172366225 C 0.0 **** -0.24
22802 H 77.03242633349092 14.78302546761222 5.147530669874527 H 0.0 **** 0.06
22803 H 77.42617787180932 14.915501353065892 3.417442727025815 H 0.0 **** 0.06
22804 H 77.88315652762805 16.221892914603487 4.5375896565657285 H 0.0 **** 0.06
22805 H 76.17086924938076 15.95955817609245 4.127195601825406 H 0.0 **** 0.06
22806 C 77.13434676542244 87.71620118979442 113.25591741525619 C 0.0 **** -0.24
22807 H 78.06125876350677 87.62128248246316 113.82279818903052 H 0.0 **** 0.06
22808 H 77.18776639017545 88.59833329239986 112.61813338187775 H 0.0 **** 0.06
22809 H 76.29629577123092 87.81672935816273 113.9456788279303 H 0.0 **** 0.06
22810 H 76.9934805637119 86.82907597849362 112.63867779420477 H 0.0 **** 0.06
22811 C 40.36918524169296 92.13148691468629 11.294875548193232 C 0.0 **** -0.24
22812 H 41.21310505534741 92.30251002382909 10.626928233405152 H 0.0 **** 0.06
22813 H 39.680081280501255 91.42394265406841 10.834733167898719 H 0.0 **** 0.06
22814 H 39.85438386175352 93.07568083481868 11.476618789983718 H 0.0 **** 0.06
22815 H 40.729924615863695 91.72632379922885 12.239761314193629 H 0.0 **** 0.06
22816 C 52.677846532859405 45.001483202720976 59.992930498859224 C 0.0 **** -0.24
22817 H 52.012563717825856 44.23590589581471 59.593892476003546 H 0.0 **** 0.06
22818 H 53.13205675766761 44.64237168931925 60.91668814642199 H 0.0 **** 0.06
22819 H 52.107218879023634 45.90732564578548 60.19803227284028 H 0.0 **** 0.06
22820 H 53.45779178943536 45.2206149283129 59.26446509976776 H 0.0 **** 0.06
22821 C 167.47227811300144 29.68703452575835 160.42694945267613 C 0.0 **** -0.24
22822 H 166.86126557360177 30.351048908677342 161.0373646607407 H 0.0 **** 0.06
22823 H 167.8168261877608 30.221275696812285 159.54192450352417 H 0.0 **** 0.06
22824 H 166.879565389659 28.824287091492067 160.12440416454075 H 0.0 **** 0.06
22825 H 168.33194297653625 29.350472824213 161.00687077712007 H 0.0 **** 0.06
22826 C 105.92298791033522 120.18579883216103 32.51403021623298 C 0.0 **** -0.24
22827 H 104.87299701465264 120.41977074927058 32.33448778697931 H 0.0 **** 0.06
22828 H 106.54829315928947 120.80293632632652 31.869224950277726 H 0.0 **** 0.06
22829 H 106.10190558801588 119.13272998029572 32.29576740016705 H 0.0 **** 0.06
22830 H 106.16524224161645 120.38697784625884 33.55766331011296 H 0.0 **** 0.06
22831 C 107.72291010582305 11.802817533564003 77.55582409213173 C 0.0 **** -0.24
22832 H 107.59486054904045 11.435939278187831 76.53739056726543 H 0.0 **** 0.06
22833 H 106.94496374497797 12.53290769347111 77.78012303407154 H 0.0 **** 0.06
22834 H 108.70213703743445 12.27238309222652 77.65130706697443 H 0.0 **** 0.06
22835 H 107.65095057980159 10.968436364061247 78.25357482059285 H 0.0 **** 0.06
22836 C 24.740217074791815 94.9763120167818 67.50962279621865 C 0.0 **** -0.24
22837 H 24.25073822476196 95.65591759839458 66.81205423864753 H 0.0 **** 0.06
22838 H 25.552194442098255 95.49954134537839 68.01626671073043 H 0.0 **** 0.06
22839 H 25.142659112102763 94.1238771087327 66.9622423775608 H 0.0 **** 0.06
22840 H 24.01626874012294 94.62816266664598 68.24621020940224 H 0.0 **** 0.06
22841 C 44.18147270398049 119.67716004643549 156.04657828980328 C 0.0 **** -0.24
22842 H 43.62293479473192 120.61351763906976 156.05241491121708 H 0.0 **** 0.06
22843 H 43.493088175634625 118.84343398389933 156.18652753606432 H 0.0 **** 0.06
22844 H 44.9117145528278 119.68468863313657 156.85564957350445 H 0.0 **** 0.06
22845 H 44.69663092191706 119.56737418118368 155.09245762107463 H 0.0 **** 0.06
22846 C 94.61892175728036 17.894224552622262 104.14049975306591 C 0.0 **** -0.24
22847 H 95.01799983422444 17.800384790226424 103.13012111327495 H 0.0 **** 0.06
22848 H 94.64133512184631 18.941184359818052 104.44390707737463 H 0.0 **** 0.06
22849 H 95.22459938505051 17.30287806444737 104.82674104394226 H 0.0 **** 0.06
22850 H 93.59069511312464 17.531963401802123 104.15907479394198 H 0.0 **** 0.06
22851 C 163.63805684185886 35.393646145972355 90.65435367560207 C 0.0 **** -0.24
22852 H 163.36802220968195 36.42179135650251 90.89665292339708 H 0.0 **** 0.06
22853 H 164.05672457533282 35.35608858148599 89.6484585742482 H 0.0 **** 0.06
22854 H 162.7502197885347 34.76355136333376 90.7026869240371 H 0.0 **** 0.06
22855 H 164.37763880952096 35.035332731495586 91.36994376539275 H 0.0 **** 0.06
22856 C 163.98903114233013 30.580955543487335 77.13500123283723 C 0.0 **** -0.24
22857 H 164.9017066945183 30.03546694967187 77.3766802326609 H 0.0 **** 0.06
22858 H 163.8381381551689 30.575019497266 76.05578149686765 H 0.0 **** 0.06
22859 H 164.07889067112097 31.60964530276351 77.48422441783886 H 0.0 **** 0.06
22860 H 163.14031956995586 30.10356066781793 77.62541534556046 H 0.0 **** 0.06
22861 C 40.311797898358975 163.56558663631202 25.251248306536247 C 0.0 **** -0.24
22862 H 41.39842897072248 163.55824225676298 25.336665857966956 H 0.0 **** 0.06
22863 H 39.93728238543173 162.54223386041718 25.296827394042587 H 0.0 **** 0.06
22864 H 40.024550660876514 164.01663441092643 24.301061412099145 H 0.0 **** 0.06
22865 H 39.88747963713297 164.1448557751648 26.071182119140275 H 0.0 **** 0.06
22866 C 159.39044806744963 148.78746591138983 162.91194685806198 C 0.0 **** -0.24
22867 H 159.85423386299968 149.55850708750918 163.52821259735117 H 0.0 **** 0.06
22868 H 158.52356132167526 148.37940316953262 163.4320664267475 H 0.0 **** 0.06
22869 H 160.111384620766 147.99125399411489 162.7242761975304 H 0.0 **** 0.06
22870 H 159.07447640561801 149.22218483676474 161.96379732260743 H 0.0 **** 0.06
22871 C 49.43204463470357 65.75199065819015 169.3287705472937 C 0.0 **** -0.24
22872 H 49.85752220781566 66.74909207205167 169.21523733144156 H 0.0 **** 0.06
22873 H 50.22493076157261 65.04384126767093 169.57012345015488 H 0.0 **** 0.06
22874 H 48.95003729015241 65.45532406555446 168.3966648305115 H 0.0 **** 0.06
22875 H 48.6954295380547 65.7604218117292 170.1315010566406 H 0.0 **** 0.06
22876 C 154.44962238521288 94.13007400386425 148.3959719934207 C 0.0 **** -0.24
22877 H 154.97084020661987 94.01708869390274 149.3466362296346 H 0.0 **** 0.06
22878 H 153.37472172254076 94.05215238506639 148.56107798854308 H 0.0 **** 0.06
22879 H 154.76982903991822 93.34617654061026 147.71040462222106 H 0.0 **** 0.06
22880 H 154.68215123735604 95.1054420937553 147.96855930417337 H 0.0 **** 0.06
22881 C 33.944034111651135 130.79935540151035 86.91592861570449 C 0.0 **** -0.24
22882 H 34.84655863688123 130.47848024246477 87.43565141229612 H 0.0 **** 0.06
22883 H 33.92716507467847 131.88715639544688 86.85357798697181 H 0.0 **** 0.06
22884 H 33.06747684352405 130.45220708258935 87.46327639838653 H 0.0 **** 0.06
22885 H 33.93442487399288 130.37755230287192 85.90992958599062 H 0.0 **** 0.06
22886 C 150.24826490567972 69.95973884937784 99.83459349447367 C 0.0 **** -0.24
22887 H 149.3498425127621 69.55285498864292 99.37133018789265 H 0.0 **** 0.06
22888 H 151.0101049292246 70.11861855081101 99.07193290060579 H 0.0 **** 0.06
22889 H 150.62082078617982 69.25855180176366 100.58179965347861 H 0.0 **** 0.06
22890 H 150.0106597186023 70.90980543720747 100.31456482337342 H 0.0 **** 0.06
22891 C 57.876984125239616 29.04678985699057 136.15972973132827 C 0.0 **** -0.24
22892 H 57.35376930735234 29.989927191375827 135.99983780503732 H 0.0 **** 0.06
22893 H 58.491345468335425 28.820549862149278 135.28805158000705 H 0.0 **** 0.06
22894 H 57.14953372970746 28.249210326004544 136.30978635836254 H 0.0 **** 0.06
22895 H 58.51270998747209 29.12874212297146 137.04101324022616 H 0.0 **** 0.06
22896 C 18.87725350961935 58.5296994893738 30.395386755177555 C 0.0 **** -0.24
22897 H 17.99912384970048 58.484247680797466 31.03941595813383 H 0.0 **** 0.06
22898 H 19.28612697716298 57.5266162423664 30.267689004061523 H 0.0 **** 0.06
22899 H 19.62995288331365 59.172624193828995 30.85138418388695 H 0.0 **** 0.06
22900 H 18.594532679736034 58.933359321767284 29.423878742903867 H 0.0 **** 0.06
22901 C 105.29232750345062 37.34185365927789 12.054741846152297 C 0.0 **** -0.24
22902 H 104.97926920324454 38.357441600043046 11.814596489963037 H 0.0 **** 0.06
22903 H 104.84036138422624 37.03554483379071 12.998521341326295 H 0.0 **** 0.06
22904 H 106.3779373259975 37.30755933991804 12.143592194312248 H 0.0 **** 0.06
22905 H 104.97136487455901 36.66623700351016 11.2615802461832 H 0.0 **** 0.06
22906 C 38.289755732688945 153.63593680144362 10.988200221066428 C 0.0 **** -0.24
22907 H 38.683472300274474 152.6245130498677 10.88778387087855 H 0.0 **** 0.06
22908 H 38.96566943634255 154.22981082754296 11.603271342590475 H 0.0 **** 0.06
22909 H 37.30764622300069 153.59823426228184 11.458148706008025 H 0.0 **** 0.06
22910 H 38.20231358603624 154.09078632831438 10.001398837938957 H 0.0 **** 0.06
22911 C 63.820067427639614 47.76122581542285 73.49944290463556 C 0.0 **** -0.24
22912 H 64.30332867752557 48.73566728958809 73.42431248394468 H 0.0 **** 0.06
22913 H 64.55769982248236 47.01192870726629 73.78686329424147 H 0.0 **** 0.06
22914 H 63.38631221977252 47.49477703435423 72.53576212563215 H 0.0 **** 0.06
22915 H 63.032406971758675 47.803745054973774 74.25263699985352 H 0.0 **** 0.06
22916 C 80.565626192014 23.282114912817747 56.86957178761642 C 0.0 **** -0.24
22917 H 80.98228104449086 23.176777651199238 57.8716047206114 H 0.0 **** 0.06
22918 H 80.75733013990921 24.289033103086865 56.50031102831463 H 0.0 **** 0.06
22919 H 79.49119655105906 23.104381866487778 56.90349919528353 H 0.0 **** 0.06
22920 H 81.03317941145548 22.555733676918862 56.20471204531151 H 0.0 **** 0.06
22921 C 66.8491238985905 38.05015883895305 84.36104020575988 C 0.0 **** -0.24
22922 H 65.8620702261789 37.753550076024 84.00606629277564 H 0.0 **** 0.06
22923 H 67.60538506731308 37.71646819121153 83.65026471946629 H 0.0 **** 0.06
22924 H 67.03733239677155 37.59370779033111 85.3327187439615 H 0.0 **** 0.06
22925 H 66.89033438061568 39.13430314142434 84.45454394140688 H 0.0 **** 0.06
22926 C 82.57337235363042 39.638242167852184 164.35424781649078 C 0.0 **** -0.24
22927 H 83.01998393556832 40.60601179540106 164.5816070422723 H 0.0 **** 0.06
22928 H 82.8020666768289 39.3659215002844 163.32373359804606 H 0.0 **** 0.06
22929 H 81.49268075235628 39.69709048651035 164.48405431197446 H 0.0 **** 0.06
22930 H 82.98051516775446 38.884628492981165 165.02826364716813 H 0.0 **** 0.06
22931 C 129.26149805144897 43.675812977531905 26.22797366903714 C 0.0 **** -0.24
22932 H 128.35708963931776 43.21953151866492 26.629236442081435 H 0.0 **** 0.06
22933 H 129.9630172930085 42.894624589870375 25.934161384240156 H 0.0 **** 0.06
22934 H 129.71889499357536 44.306620858763324 26.990627363715504 H 0.0 **** 0.06
22935 H 129.00865760848336 44.28235159226858 25.35832212704105 H 0.0 **** 0.06
22936 C 157.26680559406725 4.919215455668564 112.81887248480965 C 0.0 **** -0.24
22937 H 156.4947714953487 4.368683693552526 113.35551043202875 H 0.0 **** 0.06
22938 H 157.64922058448525 4.306327992927834 112.00180825463664 H 0.0 **** 0.06
22939 H 158.08051154035678 5.162899602512937 113.50322320115768 H 0.0 **** 0.06
22940 H 156.84394080986596 5.839382688144781 112.41647118594241 H 0.0 **** 0.06
22941 C 164.79715186228916 9.91346354424465 95.68349609546817 C 0.0 **** -0.24
22942 H 164.37630356348123 10.905136657117119 95.51631253725373 H 0.0 **** 0.06
22943 H 164.44773440111965 9.235275230896292 94.90542719394819 H 0.0 **** 0.06
22944 H 164.47938853615057 9.543719931770632 96.65802023291565 H 0.0 **** 0.06
22945 H 165.8860616421365 9.971343380807113 95.65345190709047 H 0.0 **** 0.06
22946 C 22.832711966904355 6.265339227226747 167.69037638442666 C 0.0 **** -0.24
22947 H 23.349357815761834 7.035152677262062 168.26347628896133 H 0.0 **** 0.06
22948 H 22.464390194781828 6.6921959516086815 166.75794699223889 H 0.0 **** 0.06
22949 H 21.99301387130538 5.88197874180878 168.271382472214 H 0.0 **** 0.06
22950 H 23.523751584118543 5.452051339184834 167.47067153782228 H 0.0 **** 0.06
22951 C 114.11024616746508 59.50154104247038 119.60378554098517 C 0.0 **** -0.24
22952 H 114.24287270785445 59.808678193339844 118.56603982216174 H 0.0 **** 0.06
22953 H 115.03826975960183 59.06553860443002 119.97479267807523 H 0.0 **** 0.06
22954 H 113.31081694289517 58.763843991071596 119.66453197104153 H 0.0 **** 0.06
22955 H 113.8496944079709 60.37036791996729 120.20822066753792 H 0.0 **** 0.06
22956 C 160.47247046812095 119.1056704208236 99.31685345734974 C 0.0 **** -0.24
22957 H 159.39107857473635 119.21770250291638 99.23960343711633 H 0.0 **** 0.06
22958 H 160.75537994714918 118.09833177887208 99.01191860791894 H 0.0 **** 0.06
22959 H 160.78135964712106 119.27386347439202 100.34872106834177 H 0.0 **** 0.06
22960 H 160.95976039815116 119.83240643512462 98.66791398714491 H 0.0 **** 0.06
22961 C 63.985799893755285 18.474337496176133 162.1698957500771 C 0.0 **** -0.24
22962 H 64.90464723736532 18.108667684790646 162.62786116658617 H 0.0 **** 0.06
22963 H 63.171098465205745 18.417087588550885 162.89221578568595 H 0.0 **** 0.06
22964 H 63.74476267667491 17.862214530975564 161.30064335370702 H 0.0 **** 0.06
22965 H 64.12302389935036 19.509900159046083 161.8564922306369 H 0.0 **** 0.06
22966 C 7.3020608569499075 147.83996596298476 21.272543692277623 C 0.0 **** -0.24
22967 H 6.517614902880041 148.35278165346614 20.715310510858217 H 0.0 **** 0.06
22968 H 7.095000759163781 147.91061262726626 22.34104656571725 H 0.0 **** 0.06
22969 H 8.263677626455632 148.30511430742416 21.056478004209907 H 0.0 **** 0.06
22970 H 7.330779887313724 146.79185490898203 20.976164550563567 H 0.0 **** 0.06
22971 C 8.959899128582265 160.6967710149405 29.51483839796532 C 0.0 **** -0.24
22972 H 9.781053116244493 161.31029802695474 29.145906313054553 H 0.0 **** 0.06
22973 H 8.31268340043772 161.29993604291553 30.15144968563868 H 0.0 **** 0.06
22974 H 9.36126391944191 159.86160224949543 30.08972938830101 H 0.0 **** 0.06
22975 H 8.385462120172292 160.31308773296905 28.671503674412463 H 0.0 **** 0.06
22976 C 42.00509593582882 115.50049474577673 105.65393787759109 C 0.0 **** -0.24
22977 H 41.76795017213726 116.52024958700926 105.95701894363668 H 0.0 **** 0.06
22978 H 42.265097425090175 115.48723555458784 104.59486911647076 H 0.0 **** 0.06
22979 H 41.139047161670504 114.86105627469118 105.82402650302527 H 0.0 **** 0.06
22980 H 42.84802605573188 115.13426845926264 106.23934652477664 H 0.0 **** 0.06
22981 C 172.59454938518937 110.52951726756808 169.45459196473763 C 0.0 **** -0.24
22982 H 172.8026156809937 109.46747252450473 169.31925310980776 H 0.0 **** 0.06
22983 H 172.45600244699654 110.99934959756999 168.4807929526388 H 0.0 **** 0.06
22984 H 173.43313378186753 110.99963862471154 169.96933882965368 H 0.0 **** 0.06
22985 H 171.68909217786296 110.64974893723229 170.04971698264126 H 0.0 **** 0.06
22986 C 13.096457528580679 142.65296117525128 171.60340049367977 C 0.0 **** -0.24
22987 H 12.386587025966627 142.74139929846382 170.7812808312385 H 0.0 **** 0.06
22988 H 13.786380381940475 143.49641528985728 171.57993149322175 H 0.0 **** 0.06
22989 H 13.655837323331447 141.72173676140432 171.50185944120173 H 0.0 **** 0.06
22990 H 12.556732932985476 142.65064824917846 172.55098649384885 H 0.0 **** 0.06
22991 C 111.05651871497213 140.8615663164968 136.30914603617165 C 0.0 **** -0.24
22992 H 111.31118543812494 141.224861576083 135.31414675735002 H 0.0 **** 0.06
22993 H 111.1653352141143 139.77708826942708 136.33928804370518 H 0.0 **** 0.06
22994 H 110.02649340495941 141.13096088513302 136.54151771244088 H 0.0 **** 0.06
22995 H 111.72471138108656 141.31478211788902 137.04274418079623 H 0.0 **** 0.06
22996 C 167.5938043109016 119.97377173500769 161.63073185073853 C 0.0 **** -0.24
22997 H 167.31378510487798 120.9184598932886 161.165736491662 H 0.0 **** 0.06
22998 H 168.67806087954017 119.92465180242226 161.72890566769198 H 0.0 **** 0.06
22999 H 167.24648658403675 119.1469285866657 161.01080039972413 H 0.0 **** 0.06
23000 H 167.1351630753111 119.90523686145727 162.61748429722508 H 0.0 **** 0.06
23001 C 81.44604906501293 42.8987489319571 58.587510731255534 C 0.0 **** -0.24
23002 H 80.75705782163838 42.10021322268777 58.30933269717498 H 0.0 **** 0.06
23003 H 82.46765427051415 42.51744387090656 58.57296863787069 H 0.0 **** 0.06
23004 H 81.20349326059839 43.25415198769264 59.58873224540717 H 0.0 **** 0.06
23005 H 81.35493267002892 43.720772044990426 57.877262887428515 H 0.0 **** 0.06
23006 C 22.147374761225187 167.14439998735358 163.81477549414402 C 0.0 **** -0.24
23007 H 22.615684826252362 167.78686018096593 163.0691430338711 H 0.0 **** 0.06
23008 H 22.322415778125382 167.55399609455728 164.80906661159307 H 0.0 **** 0.06
23009 H 22.576241831774247 166.14400568770768 163.7519942744414 H 0.0 **** 0.06
23010 H 21.075264048099918 167.09186035910125 163.62603126772177 H 0.0 **** 0.06
23011 C 0.4496016941447678 94.04615571003944 25.955034520944643 C 0.0 **** -0.24
23012 H 0.303577683903292 93.00269932525293 25.675163200033907 H 0.0 **** 0.06
23013 H 1.5161487796105177 94.2486849358612 26.05793953004312 H 0.0 **** 0.06
23014 H -0.05129734863840696 94.24195660993928 26.902801013655406 H 0.0 **** 0.06
23015 H 0.03055219975820478 94.690684230584 25.18215762284224 H 0.0 **** 0.06
23016 C 138.53137249925277 37.12394917948899 105.10458567940296 C 0.0 **** -0.24
23017 H 137.84607753980862 37.92576625435808 104.8287534902529 H 0.0 **** 0.06
23018 H 139.18122614683156 37.46360185553175 105.91081112517634 H 0.0 **** 0.06
23019 H 139.1364240855086 36.8507528631381 104.24043261515467 H 0.0 **** 0.06
23020 H 137.96031944334695 36.25717848153258 105.43705694840318 H 0.0 **** 0.06
23021 C 114.94554282957955 172.49881069209025 98.62942482635643 C 0.0 **** -0.24
23022 H 114.8912433222425 172.59114670419586 99.71442105945312 H 0.0 **** 0.06
23023 H 115.9829964424454 172.59307015766547 98.30790445004399 H 0.0 **** 0.06
23024 H 114.34776761021118 173.28441144336728 98.16763870499625 H 0.0 **** 0.06
23025 H 114.55918123775908 171.52401784966924 98.32827556439548 H 0.0 **** 0.06
23026 C 12.130694671932694 139.35214943105242 132.5615711164537 C 0.0 **** -0.24
23027 H 11.133794414891568 139.26785271068138 132.1294344331524 H 0.0 **** 0.06
23028 H 12.363806703466722 138.4433462710693 133.11761681587907 H 0.0 **** 0.06
23029 H 12.163104328741007 140.20932095295126 133.2344996385407 H 0.0 **** 0.06
23030 H 12.862073240631602 139.48807778950783 131.76473357824295 H 0.0 **** 0.06
23031 C 11.81354971930773 12.85017476389936 1.2130305620180195 C 0.0 **** -0.24
23032 H 12.163428227349982 12.65256423385096 0.19980438156531477 H 0.0 **** 0.06
23033 H 10.91560213401388 13.465999119201577 1.1743956958502224 H 0.0 **** 0.06
23034 H 12.590535183421537 13.375360170597169 1.769206867944547 H 0.0 **** 0.06
23035 H 11.587379552816884 11.906863913129328 1.7099197585332888 H 0.0 **** 0.06
23036 C 61.83915118878137 101.2610941046265 66.27450483269018 C 0.0 **** -0.24
23037 H 61.504549005009295 100.2439695833333 66.07492221214036 H 0.0 **** 0.06
23038 H 62.0168611805739 101.77690213741354 65.33144630518377 H 0.0 **** 0.06
23039 H 62.76351726879041 101.23280061998861 66.85337362303326 H 0.0 **** 0.06
23040 H 61.07291770851816 101.79050484499123 66.84134671840023 H 0.0 **** 0.06
23041 C 147.24094814267582 115.81880377934925 102.24025069737561 C 0.0 **** -0.24
23042 H 147.5183597847548 115.50672005948769 101.23365062607573 H 0.0 **** 0.06
23043 H 146.35825983827056 116.45693482827983 102.19150314259846 H 0.0 **** 0.06
23044 H 148.0655846574852 116.37300138402207 102.68783733864797 H 0.0 **** 0.06
23045 H 147.02236083219012 114.94015321893414 102.84664739034352 H 0.0 **** 0.06
23046 C 96.1838629806594 128.72760737628107 46.40428912190556 C 0.0 **** -0.24
23047 H 96.0985436322066 128.97577540599278 47.46198255967205 H 0.0 **** 0.06
23048 H 97.1753765084718 129.0033883152048 46.04515407246113 H 0.0 **** 0.06
23049 H 95.42798410515732 129.27596234461626 45.84196524412019 H 0.0 **** 0.06
23050 H 96.03176143511749 127.65688208924448 46.268617969711514 H 0.0 **** 0.06
23051 C 58.777566868249295 165.29548286919345 23.295626509895754 C 0.0 **** -0.24
23052 H 59.046103510051424 165.7358379718301 22.335435571851853 H 0.0 **** 0.06
23053 H 57.71346701881963 165.44899458507297 23.480439665257236 H 0.0 **** 0.06
23054 H 59.356041598911006 165.77152149852338 24.086854272058837 H 0.0 **** 0.06
23055 H 58.99405550926477 164.22796632107793 23.27838599873111 H 0.0 **** 0.06
23056 C 47.71870646383314 154.3391489918201 128.6333635101795 C 0.0 **** -0.24
23057 H 47.149687344000256 154.4330458649285 129.5578026795887 H 0.0 **** 0.06
23058 H 48.57548808355102 153.68482752497835 128.79844499663182 H 0.0 **** 0.06
23059 H 48.0678896077049 155.3233606048568 128.32018491255434 H 0.0 **** 0.06
23060 H 47.082607194214745 153.91548840998905 127.8565040620368 H 0.0 **** 0.06
23061 C 12.12530239602863 5.101567976268143 9.347302217490892 C 0.0 **** -0.24
23062 H 12.038037014061707 4.0616793122789545 9.033755598809762 H 0.0 **** 0.06
23063 H 12.149348650115336 5.745214746388967 8.46728526814104 H 0.0 **** 0.06
23064 H 13.043928489750478 5.233194407182793 9.91937020091234 H 0.0 **** 0.06
23065 H 11.269070248416156 5.366781942040063 9.967817534134156 H 0.0 **** 0.06
23066 C 72.14019887774705 74.27148408485479 75.86929813050915 C 0.0 **** -0.24
23067 H 73.21426964558465 74.09274610316945 75.90703238259982 H 0.0 **** 0.06
23068 H 71.61607326886832 73.32033649339652 75.77971704336693 H 0.0 **** 0.06
23069 H 71.90613666042132 74.89772955100442 75.00828147237114 H 0.0 **** 0.06
23070 H 71.8243749102778 74.7770288003801 76.78155408759434 H 0.0 **** 0.06
23071 C 72.32006980328781 138.68105084301138 137.72369731227445 C 0.0 **** -0.24
23072 H 71.84387739324826 138.07368668950596 138.4937491114515 H 0.0 **** 0.06
23073 H 72.02284321624033 139.72279399039465 137.84738553856187 H 0.0 **** 0.06
23074 H 72.01139509154379 138.3282416247013 136.73957091429455 H 0.0 **** 0.06
23075 H 73.40374125498508 138.59910186235862 137.81591865033292 H 0.0 **** 0.06
23076 C 51.86790434054015 15.158990909050146 77.46425648147411 C 0.0 **** -0.24
23077 H 50.82391606332931 14.946713620410833 77.23411085310008 H 0.0 **** 0.06
23078 H 51.9208127957927 15.833511683655189 78.31963572057178 H 0.0 **** 0.06
23079 H 52.34265608812018 15.626253947840638 76.60258243474799 H 0.0 **** 0.06
23080 H 52.38321776282092 14.22814084074605 77.70317998478194 H 0.0 **** 0.06
23081 C 118.87744137578977 68.41932811787582 89.96056398170896 C 0.0 **** -0.24
23082 H 119.36104597315688 68.26104833318408 88.99636156394665 H 0.0 **** 0.06
23083 H 118.99819285433506 67.52937566878317 90.57797947819546 H 0.0 **** 0.06
23084 H 117.81534684789636 68.61359074908962 89.80599207973572 H 0.0 **** 0.06
23085 H 119.33349606638006 69.27388981856512 90.45951145289247 H 0.0 **** 0.06
23086 C 19.543093111375867 112.98811264248286 73.28181050067246 C 0.0 **** -0.24
23087 H 19.950451252782806 113.26068178423483 72.30789694676706 H 0.0 **** 0.06
23088 H 18.49753328728724 113.29135261975236 73.33587855628312 H 0.0 **** 0.06
23089 H 20.108923321333293 113.49159585753492 74.06493499798928 H 0.0 **** 0.06
23090 H 19.61563869032507 111.90940414352673 73.41725522603691 H 0.0 **** 0.06
23091 C 172.55645272056142 39.520954980510794 117.26942155037298 C 0.0 **** -0.24
23092 H 172.81939461202114 40.57711491281674 117.3303555338795 H 0.0 **** 0.06
23093 H 173.0302124013426 39.07980718939308 116.39195268958167 H 0.0 **** 0.06
23094 H 171.47388527333288 39.41990916408997 117.18870806788232 H 0.0 **** 0.06
23095 H 172.90364448934412 39.00803474028248 118.16628546694409 H 0.0 **** 0.06
23096 C 53.723628073120494 110.42958276157736 85.55822634054142 C 0.0 **** -0.24
23097 H 53.613663876323315 111.50224880297469 85.71347642232611 H 0.0 **** 0.06
23098 H 52.993460489732385 109.89720862009455 86.16794780559285 H 0.0 **** 0.06
23099 H 54.72982693592476 110.12265724282071 85.84504994822146 H 0.0 **** 0.06
23100 H 53.55832925262571 110.19636836045498 84.50580933129218 H 0.0 **** 0.06
23101 C 94.42648240985943 67.0728782742065 166.80308315042717 C 0.0 **** -0.24
23102 H 94.78702052702613 66.42958734015409 167.6055906068542 H 0.0 **** 0.06
23103 H 94.6716623983202 68.11043321722987 167.03202795802935 H 0.0 **** 0.06
23104 H 93.34603953863211 66.96670247725514 166.71056795348906 H 0.0 **** 0.06
23105 H 94.90157895759683 66.78492893767952 165.8655034880303 H 0.0 **** 0.06
23106 C 73.95338790080102 163.79085463290892 132.30620707167097 C 0.0 **** -0.24
23107 H 74.59547405698878 164.49640130618837 131.7772113294543 H 0.0 **** 0.06
23108 H 74.44075497479858 163.48058115824435 133.23083884104346 H 0.0 **** 0.06
23109 H 73.77878087191296 162.9184428844141 131.677086819692 H 0.0 **** 0.06
23110 H 73.00184738877932 164.26835467567514 132.53725363036654 H 0.0 **** 0.06
23111 C 97.32807612591174 136.0698022574231 146.2368270673075 C 0.0 **** -0.24
23112 H 98.0673834153655 136.57293531676194 145.6137307363923 H 0.0 **** 0.06
23113 H 97.17108834112528 135.05586757470533 145.86738625993883 H 0.0 **** 0.06
23114 H 96.38764113179425 136.61984599509623 146.20151281245114 H 0.0 **** 0.06
23115 H 97.68668722377527 136.02932135536838 147.2651473240196 H 0.0 **** 0.06
23116 C 126.62056647174347 148.94819043098636 43.23004709609957 C 0.0 **** -0.24
23117 H 127.18652610490426 149.8742039245714 43.12681968435143 H 0.0 **** 0.06
23118 H 125.78109926264031 149.108310954992 43.90530657055393 H 0.0 **** 0.06
23119 H 127.26818309299287 148.16895203341093 43.633086105866894 H 0.0 **** 0.06
23120 H 126.24748867976606 148.63999248403215 42.25268676947499 H 0.0 **** 0.06
23121 C 65.72454001516904 123.54121130149889 109.57106384003202 C 0.0 **** -0.24
23122 H 66.03822313480133 124.52225689695106 109.21403774706187 H 0.0 **** 0.06
23123 H 65.38533251063208 122.93983824020643 108.72711424494378 H 0.0 **** 0.06
23124 H 64.91012386898673 123.65812262841433 110.28586819192265 H 0.0 **** 0.06
23125 H 66.56579690705037 123.04547326380182 110.05563770421884 H 0.0 **** 0.06
23126 C 95.23959783819225 16.382456148197377 99.99618345686594 C 0.0 **** -0.24
23127 H 95.40276842376664 15.591397438435678 100.72790652932082 H 0.0 **** 0.06
23128 H 95.34742373229886 15.974701878859236 98.99069838019042 H 0.0 **** 0.06
23129 H 95.97205197273695 17.17520060952441 100.14750211809573 H 0.0 **** 0.06
23130 H 94.23466283994549 16.786731648693916 100.11786400190414 H 0.0 **** 0.06
23131 C 29.145800609810976 51.57895820544604 60.364199100929156 C 0.0 **** -0.24
23132 H 28.610429059058134 52.184054122131556 61.09624379536787 H 0.0 **** 0.06
23133 H 28.901347424533895 50.52695798843865 60.51425373465631 H 0.0 **** 0.06
23134 H 30.218776901499723 51.724116309697365 60.4886988205581 H 0.0 **** 0.06
23135 H 28.85179894415711 51.88094260680214 59.35870487307534 H 0.0 **** 0.06
23136 C 53.58619071600191 163.4094596153115 20.451975453404685 C 0.0 **** -0.24
23137 H 52.920896642440596 162.5716072832337 20.657056925887304 H 0.0 **** 0.06
23138 H 53.28832361209166 163.88980447167458 19.520325211330174 H 0.0 **** 0.06
23139 H 54.610283488454 163.0469664586797 20.362494216110065 H 0.0 **** 0.06
23140 H 53.525849742772834 164.13015056709025 21.267607545276405 H 0.0 **** 0.06
23141 C 5.376668399974442 166.0011384345519 122.12234466989952 C 0.0 **** -0.24
23142 H 6.158947592898421 166.7229787583246 122.36013457080531 H 0.0 **** 0.06
23143 H 4.456994265899596 166.53094517525602 121.87442838240287 H 0.0 **** 0.06
23144 H 5.20531704499431 165.35602799952528 122.98428749582627 H 0.0 **** 0.06
23145 H 5.688148993967047 165.39630022633574 121.27132778529403 H 0.0 **** 0.06
23146 C 43.694482069789956 31.604423178209117 34.70378723880435 C 0.0 **** -0.24
23147 H 43.112573558146806 32.525902220714954 34.67997444678889 H 0.0 **** 0.06
23148 H 43.71315128048428 31.213399211194258 35.72134456824341 H 0.0 **** 0.06
23149 H 44.71307234675356 31.810009865623158 34.37360824731769 H 0.0 **** 0.06
23150 H 43.23938041860458 30.86974622610481 34.04049589073787 H 0.0 **** 0.06
23151 C 25.970334697929502 106.66853455654712 12.619326588640135 C 0.0 **** -0.24
23152 H 25.10272355979771 106.84624673811118 11.983235791672449 H 0.0 **** 0.06
23153 H 26.709099216515597 106.08405620460482 12.070168823311292 H 0.0 **** 0.06
23154 H 25.662161804249763 106.12244429880369 13.510030265136386 H 0.0 **** 0.06
23155 H 26.406395708818877 107.62421003224085 12.910849100070287 H 0.0 **** 0.06
23156 C 74.55708209856513 11.014147106472947 21.561784850931417 C 0.0 **** -0.24
23157 H 74.31597223307513 11.894208679175122 20.966274294411562 H 0.0 **** 0.06
23158 H 75.60054918000496 10.74098510838462 21.39981200837272 H 0.0 **** 0.06
23159 H 73.91357210716865 10.186396359590098 21.263880881822132 H 0.0 **** 0.06
23160 H 74.39917410666395 11.235075886534865 22.616837783792647 H 0.0 **** 0.06
23161 C 44.64542713895109 41.93840186808187 20.9912271557713 C 0.0 **** -0.24
23162 H 45.655769423512226 41.53558091689247 20.91568939861753 H 0.0 **** 0.06
23163 H 44.14808496770921 41.51124975263566 21.862884807425075 H 0.0 **** 0.06
23164 H 44.08470179347091 41.68428060866309 20.092165625556618 H 0.0 **** 0.06
23165 H 44.69467210002219 43.02308174949998 21.094758395380126 H 0.0 **** 0.06
23166 C 82.09352932159163 21.65984789408128 128.40178265870372 C 0.0 **** -0.24
23167 H 81.80561769735779 22.462491370500572 127.7227321928105 H 0.0 **** 0.06
23168 H 82.14688898733013 22.046783304753717 129.41923482461453 H 0.0 **** 0.06
23169 H 83.06795337289682 21.268265037193117 128.10958439945546 H 0.0 **** 0.06
23170 H 81.35159070436625 20.862224595757425 128.35481065600072 H 0.0 **** 0.06
23171 C 153.6019184146038 5.732030639342348 38.741849359464254 C 0.0 **** -0.24
23172 H 153.17390112386872 4.829196467089027 39.17792487073791 H 0.0 **** 0.06
23173 H 153.68111722368178 5.6116075785316255 37.66136982560326 H 0.0 **** 0.06
23174 H 154.59341393194322 5.903585358042449 39.16184915079785 H 0.0 **** 0.06
23175 H 152.9600577818845 6.583198534535157 38.9660351954887 H 0.0 **** 0.06
23176 C 160.08298014522344 60.35810964844282 115.37273168757613 C 0.0 **** -0.24
23177 H 161.145800213616 60.376846233793344 115.61048277973302 H 0.0 **** 0.06
23178 H 159.52202254515922 60.82931189764787 116.18000128585265 H 0.0 **** 0.06
23179 H 159.75451793362944 59.324388261968465 115.25666314307807 H 0.0 **** 0.06
23180 H 159.90872621882278 60.900769473029584 114.44367567970161 H 0.0 **** 0.06
23181 C 131.19157757799258 15.16637476323757 18.328734420064563 C 0.0 **** -0.24
23182 H 132.22374728332022 14.820458583490222 18.28104942484623 H 0.0 **** 0.06
23183 H 130.6023533157571 14.472665673517554 18.928521594251123 H 0.0 **** 0.06
23184 H 130.77930710426085 15.216445335805247 17.32065446493357 H 0.0 **** 0.06
23185 H 131.16072928840833 16.156362445396354 18.783377078356693 H 0.0 **** 0.06
23186 C 127.50486697147366 156.29994163492128 144.47612320695387 C 0.0 **** -0.24
23187 H 127.71438471377462 155.98500174798062 145.4973035566527 H 0.0 **** 0.06
23188 H 126.54287613404156 156.81259902955188 144.4435925605532 H 0.0 **** 0.06
23189 H 127.47284055580366 155.4257510004034 143.82577927451146 H 0.0 **** 0.06
23190 H 128.28966833912403 156.97694109255784 144.1365399721313 H 0.0 **** 0.06
23191 C 7.720256059338652 12.880892911938304 31.20576974856742 C 0.0 **** -0.24
23192 H 7.23047425307962 12.744125908829972 30.24120467633587 H 0.0 **** 0.06
23193 H 8.798536599930145 12.947098880838894 31.059202210895336 H 0.0 **** 0.06
23194 H 7.491416511821001 12.033615049920513 31.85194299332325 H 0.0 **** 0.06
23195 H 7.35895363966651 13.799391016101794 31.66936332810623 H 0.0 **** 0.06
23196 C 38.2056975903256 11.451748744428897 101.2929483311517 C 0.0 **** -0.24
23197 H 39.21001556356612 11.86684937592372 101.37119812980941 H 0.0 **** 0.06
23198 H 37.90274355163666 11.049841369706996 102.26009646556992 H 0.0 **** 0.06
23199 H 38.198402734486024 10.654423384556509 100.54928559811458 H 0.0 **** 0.06
23200 H 37.511628511613594 12.235880847528364 100.99121313111291 H 0.0 **** 0.06
23201 C 155.3149193706595 80.67943723163644 67.21936778509256 C 0.0 **** -0.24
23202 H 154.60457283642634 81.45720037910365 67.49929718015332 H 0.0 **** 0.06
23203 H 155.71447407534583 80.21138343781104 68.11942772158656 H 0.0 **** 0.06
23204 H 156.13027723468997 81.12089206934876 66.64688866244379 H 0.0 **** 0.06
23205 H 154.81035333617598 79.92827304028258 66.61185757618658 H 0.0 **** 0.06
23206 C 144.79385305349865 59.82693006264766 47.97663748968995 C 0.0 **** -0.24
23207 H 145.03907308520814 60.80901954959839 47.57210619844598 H 0.0 **** 0.06
23208 H 144.46187361597688 59.173449533494846 47.169848770401344 H 0.0 **** 0.06
23209 H 143.99794882710898 59.92672360856116 48.71476478214363 H 0.0 **** 0.06
23210 H 145.67692902097338 59.398272700389356 48.45070488180863 H 0.0 **** 0.06
23211 C 63.60901438215757 168.9784587440159 134.9891546838432 C 0.0 **** -0.24
23212 H 63.98958570295612 169.39928607201546 135.92045917062165 H 0.0 **** 0.06
23213 H 62.62989583333638 169.40628906715986 134.77223929606777 H 0.0 **** 0.06
23214 H 63.51902270667223 167.89721340519822 135.08959958242104 H 0.0 **** 0.06
23215 H 64.29658620173227 169.21277559046626 134.17678544546192 H 0.0 **** 0.06
23216 C 123.22030644556816 75.93649344217941 95.23669657773223 C 0.0 **** -0.24
23217 H 122.16634023930084 76.03862344877047 95.493226993762 H 0.0 **** 0.06
23218 H 123.56815111384634 74.94169213207151 95.51608455420458 H 0.0 **** 0.06
23219 H 123.79882489091113 76.68879640838864 95.77446966098469 H 0.0 **** 0.06
23220 H 123.34915536365548 76.07797475141643 94.1634625910475 H 0.0 **** 0.06
23221 C 105.57501520438828 136.2703361396293 65.35668249392737 C 0.0 **** -0.24
23222 H 105.80029161402436 135.88047067368666 64.363450056407 H 0.0 **** 0.06
23223 H 105.5028337460688 137.35694324698315 65.31190513883767 H 0.0 **** 0.06
23224 H 106.37029737378407 135.9868667891339 66.04572789859554 H 0.0 **** 0.06
23225 H 104.6283524810338 135.85657123552312 65.70323474063561 H 0.0 **** 0.06
23226 C 71.43043631494693 93.60729735891408 95.16457882493154 C 0.0 **** -0.24
23227 H 71.4117902877691 92.51885478990758 95.21532595757839 H 0.0 **** 0.06
23228 H 71.90936642143224 94.00382967699704 96.06042774539554 H 0.0 **** 0.06
23229 H 70.41046806345885 93.98491975632837 95.10055346996279 H 0.0 **** 0.06
23230 H 71.99027784681849 93.92020754980925 94.28402739676648 H 0.0 **** 0.06
23231 C 29.16881178140966 85.52593422979349 15.914809804640129 C 0.0 **** -0.24
23232 H 28.746937263315772 86.53047115034465 15.9019013912243 H 0.0 **** 0.06
23233 H 29.742005598304218 85.36117215011183 15.00188509850696 H 0.0 **** 0.06
23234 H 28.36300543728305 84.79372368528419 15.975522804348316 H 0.0 **** 0.06
23235 H 29.823298826735254 85.41836993343318 16.779929924481053 H 0.0 **** 0.06
23236 C 162.8522105476544 100.74227949292501 129.21346356587753 C 0.0 **** -0.24
23237 H 162.69722372261052 100.00765327634036 130.0042338336878 H 0.0 **** 0.06
23238 H 162.42312095835035 101.69746553246912 129.51664824239498 H 0.0 **** 0.06
23239 H 162.36789837661473 100.39845393796631 128.29953529079796 H 0.0 **** 0.06
23240 H 163.9202903651383 100.86366636768452 129.03552849441797 H 0.0 **** 0.06
23241 C 115.94304413160762 102.71796323173223 85.14740171480051 C 0.0 **** -0.24
23242 H 116.65379524583585 103.52173496066922 84.95721752409051 H 0.0 **** 0.06
23243 H 116.48504151628728 101.78560073078808 85.31295005487895 H 0.0 **** 0.06
23244 H 115.2815461061167 102.6067904007547 84.28850292204454 H 0.0 **** 0.06
23245 H 115.35304757865885 102.95690326842302 86.03287274389587 H 0.0 **** 0.06
23246 C 51.36733219333948 71.44986148704459 41.729513054645636 C 0.0 **** -0.24
23247 H 51.848914806393 71.5878299961056 40.7607725842427 H 0.0 **** 0.06
23248 H 52.09444663746879 71.62014123641518 42.52336856503561 H 0.0 **** 0.06
23249 H 50.98180093633033 70.43298909505586 41.800859838522555 H 0.0 **** 0.06
23250 H 50.54496385341889 72.15842796546815 41.830735868904455 H 0.0 **** 0.06
23251 C 132.5437734455196 85.54911266298717 10.927408875791173 C 0.0 **** -0.24
23252 H 132.72326618498076 85.07335796229995 9.962948910749105 H 0.0 **** 0.06
23253 H 131.86970680255106 84.92937540996326 11.518473233151838 H 0.0 **** 0.06
23254 H 132.09450331578097 86.52944267617335 10.770349697180137 H 0.0 **** 0.06
23255 H 133.4904224812807 85.66352623356732 11.457107252999293 H 0.0 **** 0.06
23256 C 17.57977781442844 100.43121943333773 0.12918165414814098 C 0.0 **** -0.24
23257 H 17.53772703246483 101.28034505881266 -0.5535281015309721 H 0.0 **** 0.06
23258 H 17.696691461319944 99.51060266935536 -0.4437478317079382 H 0.0 **** 0.06
23259 H 16.657269413112715 100.38478307418427 0.7076426212716314 H 0.0 **** 0.06
23260 H 18.427037007921854 100.54956291127479 0.8041970972588217 H 0.0 **** 0.06
23261 C 69.77132971072422 87.2709722867498 53.45850127606205 C 0.0 **** -0.24
23262 H 68.84648557713685 87.46588630612675 52.91431465664162 H 0.0 **** 0.06
23263 H 69.78994198142412 87.86906661340667 54.36937554571597 H 0.0 **** 0.06
23264 H 70.62282254342004 87.53517315922595 52.83233435978478 H 0.0 **** 0.06
23265 H 69.82431167637347 86.2133132546855 53.71667266916849 H 0.0 **** 0.06
23266 C 32.503633137082886 168.51106605912128 58.31121128950738 C 0.0 **** -0.24
23267 H 32.14752782102133 167.65425650463442 58.883958703777125 H 0.0 **** 0.06
23268 H 33.46885291333098 168.27273606481472 57.86275078591176 H 0.0 **** 0.06
23269 H 32.61107299249608 169.37075358609417 58.97329605935863 H 0.0 **** 0.06
23270 H 31.785448376904867 168.74502623052322 57.5251804498003 H 0.0 **** 0.06
23271 C 58.02203562435473 131.59478836418322 65.66952596607182 C 0.0 **** -0.24
23272 H 56.94513226529149 131.64685007113061 65.82879589552185 H 0.0 **** 0.06
23273 H 58.5333131274801 131.61688554225128 66.63264550868051 H 0.0 **** 0.06
23274 H 58.34198909113725 132.446929183686 65.06899202260692 H 0.0 **** 0.06
23275 H 58.268109335479366 130.67044242659873 65.14752262958571 H 0.0 **** 0.06
23276 C 19.047339206201855 99.2177406520814 31.83039740223205 C 0.0 **** -0.24
23277 H 18.320101500017643 98.69519462850204 31.208558057040193 H 0.0 **** 0.06
23278 H 18.90014749825059 98.93848919507192 32.873815064187426 H 0.0 **** 0.06
23279 H 18.912970416468795 100.29389656313427 31.718394342129343 H 0.0 **** 0.06
23280 H 20.054791070524573 98.94304585365487 31.51880363274914 H 0.0 **** 0.06
23281 C 24.78285433457785 44.96569868018803 22.741310947374643 C 0.0 **** -0.24
23282 H 25.864152411244447 44.896221525937676 22.624663759185978 H 0.0 **** 0.06
23283 H 24.534179129050244 44.994148385882625 23.802720139506846 H 0.0 **** 0.06
23284 H 24.311269760022128 44.09813772742115 22.280204500550383 H 0.0 **** 0.06
23285 H 24.422326422338784 45.874546492245955 22.258948552950358 H 0.0 **** 0.06
23286 C 17.775066947566756 157.57477333618505 2.922157932836406 C 0.0 **** -0.24
23287 H 18.702658804564294 157.64675568347417 3.489980151061161 H 0.0 **** 0.06
23288 H 17.78934938532575 158.30111061011314 2.1094585015467615 H 0.0 **** 0.06
23289 H 16.930215891023124 157.779979612039 3.579176384911058 H 0.0 **** 0.06
23290 H 17.68001692965072 156.57003247726757 2.5092226932198045 H 0.0 **** 0.06
23291 C 67.42481596725432 66.40224931914989 158.31793474563617 C 0.0 **** -0.24
23292 H 66.37838768910387 66.536548485196 158.04511839671443 H 0.0 **** 0.06
23293 H 67.88977215729915 67.37822805773315 158.461609598512 H 0.0 **** 0.06
23294 H 67.94174445093529 65.8665625877923 157.52274117857638 H 0.0 **** 0.06
23295 H 67.48796589705717 65.82931253693323 159.24283620166676 H 0.0 **** 0.06
23296 C 124.07508358938844 89.98980194541133 88.79354909243568 C 0.0 **** -0.24
23297 H 123.90419458623438 88.93289393234079 88.58852570151326 H 0.0 **** 0.06
23298 H 125.10189064128139 90.13223225829454 89.129721750469 H 0.0 **** 0.06
23299 H 123.38819536790737 90.32451159624615 89.5708573996716 H 0.0 **** 0.06
23300 H 123.90580457291452 90.56714576093633 87.88533882897589 H 0.0 **** 0.06
23301 C 102.61389828958266 133.27704553787117 100.24000278482941 C 0.0 **** -0.24
23302 H 101.64937704850666 132.88328371965818 100.56141934720796 H 0.0 **** 0.06
23303 H 102.71115893850921 134.3114302487154 100.5698555160306 H 0.0 **** 0.06
23304 H 102.67965064115529 133.23326840655372 99.15306977687322 H 0.0 **** 0.06
23305 H 103.412753239806 132.67853459558512 100.6767562376512 H 0.0 **** 0.06
23306 C 143.748703710292 7.423882336266757 88.54574544631018 C 0.0 **** -0.24
23307 H 143.53107901194085 6.659244034681365 87.79969587828477 H 0.0 **** 0.06
23308 H 143.095421487595 8.282169572855395 88.38654569462372 H 0.0 **** 0.06
23309 H 144.78889561054714 7.73522897144889 88.45347817055638 H 0.0 **** 0.06
23310 H 143.57856026408172 7.016890202354716 89.54273582190808 H 0.0 **** 0.06
23311 C 162.33946917648245 159.91714852678376 157.41313831023876 C 0.0 **** -0.24
23312 H 161.3320048777537 159.50255510949785 157.42418997038155 H 0.0 **** 0.06
23313 H 162.51625339712695 160.4660286600846 158.3385048018537 H 0.0 **** 0.06
23314 H 162.44518637300376 160.59188987360844 156.56426779926792 H 0.0 **** 0.06
23315 H 163.06499131544538 159.10751464341234 157.32615656747777 H 0.0 **** 0.06
23316 C 73.05435888162832 108.79164019631565 112.32738488689506 C 0.0 **** -0.24
23317 H 73.49090906781106 109.57283023088377 112.94996199792192 H 0.0 **** 0.06
23318 H 72.75738545738709 107.95018796337195 112.9550369944171 H 0.0 **** 0.06
23319 H 73.78996418766862 108.4567538459169 111.595387497227 H 0.0 **** 0.06
23320 H 72.18029222664352 109.18493225452059 111.80970932797743 H 0.0 **** 0.06
23321 C 83.52857080019027 66.88492344991948 102.78421967491659 C 0.0 **** -0.24
23322 H 82.88525009127976 67.72777934928939 102.53083539422491 H 0.0 **** 0.06
23323 H 83.24854103626379 66.02082791397295 102.18177098926077 H 0.0 **** 0.06
23324 H 83.41222962365907 66.64520047268935 103.841482570101 H 0.0 **** 0.06
23325 H 84.56616424616986 67.14819142971244 102.58332182645836 H 0.0 **** 0.06
23326 C 15.150546577222457 109.06176538298496 112.33074624952792 C 0.0 **** -0.24
23327 H 14.355912397185676 108.55250855743222 111.78615174893008 H 0.0 **** 0.06
23328 H 16.115669248181916 108.66099626155543 112.02254258730238 H 0.0 **** 0.06
23329 H 15.015700523480831 108.9040747734137 113.40021965393237 H 0.0 **** 0.06
23330 H 15.112847042290184 110.12924747206935 112.11322631065894 H 0.0 **** 0.06
23331 C 137.56242662349337 25.77166280289798 155.2074959572796 C 0.0 **** -0.24
23332 H 138.19231765880915 24.917697682617614 154.95736388121878 H 0.0 **** 0.06
23333 H 137.31989722946327 25.74592708808182 156.26958838962813 H 0.0 **** 0.06
23334 H 136.64417371644464 25.72828565954834 154.6229660870095 H 0.0 **** 0.06
23335 H 138.09692404667194 26.69452926669578 154.97909013475987 H 0.0 **** 0.06
23336 C 97.51085492753856 93.22261518645962 117.09375143118498 C 0.0 **** -0.24
23337 H 98.30321388397653 93.01731536165286 116.37497023367226 H 0.0 **** 0.06
23338 H 96.5981995507795 93.49122525046681 116.56255753229044 H 0.0 **** 0.06
23339 H 97.81292633116567 94.04782679332811 117.73969097472929 H 0.0 **** 0.06
23340 H 97.33168218804457 92.33418170909039 117.7002811534947 H 0.0 **** 0.06
23341 C 39.79083017636958 103.58251068699613 98.96883554811859 C 0.0 **** -0.24
23342 H 40.7995479669309 103.70760435723349 98.57581243885664 H 0.0 **** 0.06
23343 H 39.828532114039376 103.54559600474462 100.05809680597923 H 0.0 **** 0.06
23344 H 39.36575564716151 102.65378736636646 98.58825333345524 H 0.0 **** 0.06
23345 H 39.1721098923054 104.42162156896393 98.65341475670544 H 0.0 **** 0.06
23346 C 112.79714248193267 124.42335116251252 169.99695512904043 C 0.0 **** -0.24
23347 H 113.0904667028808 124.79121518106481 170.9803772972286 H 0.0 **** 0.06
23348 H 113.30851039095194 124.99995260334168 169.22607198059285 H 0.0 **** 0.06
23349 H 111.71964593586333 124.5290770301394 169.87664977348172 H 0.0 **** 0.06
23350 H 113.07163214423105 123.3714503547898 169.9065208737426 H 0.0 **** 0.06
23351 C 96.12388067529625 123.33917007939797 123.05019471869923 C 0.0 **** -0.24
23352 H 96.09152523513953 124.34815421737605 122.63777824229982 H 0.0 **** 0.06
23353 H 97.06495557773954 122.8646505534293 122.77553423708639 H 0.0 **** 0.06
23354 H 95.29262456382986 122.75729007121083 122.65008703111198 H 0.0 **** 0.06
23355 H 96.04312274682096 123.38803338073302 124.13635480596622 H 0.0 **** 0.06
23356 C 19.37073024074479 131.20377845595584 2.7351728009742544 C 0.0 **** -0.24
23357 H 20.15185576587143 131.63949876166083 3.3570834676554853 H 0.0 **** 0.06
23358 H 18.67316800080846 131.9835900389482 2.427974121787315 H 0.0 **** 0.06
23359 H 18.836923249093843 130.4415384104223 3.303971036253614 H 0.0 **** 0.06
23360 H 19.820525224550153 130.74974025395744 1.8521541312498755 H 0.0 **** 0.06
23361 C 55.594865623494286 37.219770788805704 69.14777917917887 C 0.0 **** -0.24
23362 H 54.70773857042184 36.860408943111054 69.67030848023619 H 0.0 **** 0.06
23363 H 55.601633993648534 38.310175447097606 69.15237067160704 H 0.0 **** 0.06
23364 H 55.58120735629325 36.8600706180637 68.11894079377853 H 0.0 **** 0.06
23365 H 56.487036888941475 36.84862913802493 69.65109465039788 H 0.0 **** 0.06
23366 C 81.88119628176048 41.08226094800162 89.32150697296446 C 0.0 **** -0.24
23367 H 81.39436420362917 41.80325602692044 89.97936702742942 H 0.0 **** 0.06
23368 H 82.17682334190752 40.20630297839327 89.89904785113764 H 0.0 **** 0.06
23369 H 82.76384895584403 41.53774128732567 88.87293357566053 H 0.0 **** 0.06
23370 H 81.18788160489493 40.783227852265554 88.5352371987998 H 0.0 **** 0.06
23371 C 110.81659897338909 31.611698637124036 129.60802743166022 C 0.0 **** -0.24
23372 H 109.9843687400382 31.608031892976925 130.3119532654896 H 0.0 **** 0.06
23373 H 110.65647650241067 32.38940542338079 128.86107352248803 H 0.0 **** 0.06
23374 H 110.87968009837147 30.641600703766727 129.11545972573055 H 0.0 **** 0.06
23375 H 111.74462392766111 31.80806834575236 130.14421376496927 H 0.0 **** 0.06
23376 C 106.67981153048922 139.50026525031802 44.07712523771269 C 0.0 **** -0.24
23377 H 107.34550050152325 138.9708317436115 43.39529641223345 H 0.0 **** 0.06
23378 H 105.71549949965947 139.65744642236626 43.59484466987877 H 0.0 **** 0.06
23379 H 107.11824939779629 140.4642202918091 44.33558626636477 H 0.0 **** 0.06
23380 H 106.54272506198325 138.90972254635875 44.98323274395449 H 0.0 **** 0.06
23381 C 12.021401862203497 160.37356935618604 168.17402961137512 C 0.0 **** -0.24
23382 H 12.767458138275408 160.17509676685415 168.94298203268593 H 0.0 **** 0.06
23383 H 12.194084746952413 159.7143090736354 167.3222340143197 H 0.0 **** 0.06
23384 H 12.100758772135713 161.41175277968597 167.85140002795399 H 0.0 **** 0.06
23385 H 11.025927970079437 160.19284437044666 168.57807089698625 H 0.0 **** 0.06
23386 C 87.63065276158886 143.10129324603392 67.48357226636887 C 0.0 **** -0.24
23387 H 87.01742599619126 142.2000609804317 67.4691662593346 H 0.0 **** 0.06
23388 H 87.2994974197407 143.77787283425124 66.69598457305626 H 0.0 **** 0.06
23389 H 88.67428072693394 142.83367488875666 67.31938865099458 H 0.0 **** 0.06
23390 H 87.52888072009614 143.59316444052595 68.45186117687896 H 0.0 **** 0.06
23391 C 4.362829240277705 19.768085124028467 74.38973873217762 C 0.0 **** -0.24
23392 H 4.655368409752896 20.1040680863358 75.38340336624415 H 0.0 **** 0.06
23393 H 3.4501613572024326 20.281732360576868 74.08651100504268 H 0.0 **** 0.06
23394 H 4.185471999680061 18.692522711530742 74.40697545421384 H 0.0 **** 0.06
23395 H 5.160099326288332 19.993539278749473 73.68041436265199 H 0.0 **** 0.06
23396 C 124.46282811939295 109.61733378773613 101.62966804724923 C 0.0 **** -0.24
23397 H 124.74162717028409 110.20040217400847 102.50699723955174 H 0.0 **** 0.06
23398 H 125.3546573257097 109.39689583845691 101.0426058903775 H 0.0 **** 0.06
23399 H 123.75971766347575 110.18681192389292 101.02314972070613 H 0.0 **** 0.06
23400 H 123.99708414957374 108.68446569377949 101.9470492895615 H 0.0 **** 0.06
23401 C 102.59423341458063 111.63553691880881 44.39101338461347 C 0.0 **** -0.24
23402 H 103.38966382301572 111.69236886990862 45.13486001642866 H 0.0 **** 0.06
23403 H 102.97389107674576 111.15053924639045 43.490982530099984 H 0.0 **** 0.06
23404 H 102.25272201996157 112.64104563190068 44.1465254256139 H 0.0 **** 0.06
23405 H 101.7626392469723 111.0568584423412 44.79375593354973 H 0.0 **** 0.06
23406 C 65.97555046232247 88.79714085213645 47.82853466718029 C 0.0 **** -0.24
23407 H 65.19488047106023 89.54254138701394 47.67648337737451 H 0.0 **** 0.06
23408 H 65.61681238259473 88.03029099339047 48.514979468517495 H 0.0 **** 0.06
23409 H 66.85893255940198 89.27797750915526 48.24792630613001 H 0.0 **** 0.06
23410 H 66.2311282057858 88.3390548726821 46.872723255212094 H 0.0 **** 0.06
23411 C 42.48811544555963 45.823883220779464 93.00363788026073 C 0.0 **** -0.24
23412 H 42.50329227947951 45.49340487016181 94.04196388569076 H 0.0 **** 0.06
23413 H 43.510306025433394 45.90371490874605 92.63360476424074 H 0.0 **** 0.06
23414 H 42.000663875778415 46.79641205003486 92.93808776454867 H 0.0 **** 0.06
23415 H 41.93827451393901 45.10100447065031 92.40093028245028 H 0.0 **** 0.06
23416 C 151.74916806574018 130.2113692790609 48.368344542962845 C 0.0 **** -0.24
23417 H 152.47174353131308 131.02550821346946 48.31732825786969 H 0.0 **** 0.06
23418 H 151.2983223406376 130.1858469937307 49.360269904314706 H 0.0 **** 0.06
23419 H 152.2540442947764 129.26520192650568 48.1739467180698 H 0.0 **** 0.06
23420 H 150.97175588366076 130.36802028266493 47.61995161652281 H 0.0 **** 0.06
23421 C 148.93158614619824 159.72226769749986 100.61268094502628 C 0.0 **** -0.24
23422 H 148.99089525850442 159.06788951560674 99.74273047427522 H 0.0 **** 0.06
23423 H 149.84207817242276 159.6238997984451 101.20399661189475 H 0.0 **** 0.06
23424 H 148.07059739571287 159.44002662409721 101.219906255122 H 0.0 **** 0.06
23425 H 148.8209659990328 160.75508586489906 100.28307665680705 H 0.0 **** 0.06
23426 C 171.900479800077 4.030381546689227 63.11436296526135 C 0.0 **** -0.24
23427 H 171.6102250172207 4.472607025026662 64.06836874282837 H 0.0 **** 0.06
23428 H 171.71511850745262 4.745457994724347 62.31255434513881 H 0.0 **** 0.06
23429 H 171.31512440703776 3.1277354985303703 62.93927053354764 H 0.0 **** 0.06
23430 H 172.96008241016568 3.7781846397145387 63.13972402096594 H 0.0 **** 0.06
23431 C 143.89061882118017 38.01665857171383 22.280849102892184 C 0.0 **** -0.24
23432 H 144.1678379491791 37.834374486979385 21.242597567418038 H 0.0 **** 0.06
23433 H 142.8071204063251 38.11875334599557 22.355052049240506 H 0.0 **** 0.06
23434 H 144.36688611183627 38.93298597411285 22.628362729577475 H 0.0 **** 0.06
23435 H 144.21971971239145 37.179918200636166 22.89648562033684 H 0.0 **** 0.06
23436 C 116.79861392375227 88.27466410343652 76.14007807609529 C 0.0 **** -0.24
23437 H 116.37104581082741 87.27430033353266 76.08425710019566 H 0.0 **** 0.06
23438 H 116.29148555283751 88.92596921567593 75.42726204807937 H 0.0 **** 0.06
23439 H 117.86124090028414 88.2294156538627 75.89817165332676 H 0.0 **** 0.06
23440 H 116.67182070674534 88.66890665243756 77.14767146624277 H 0.0 **** 0.06
23441 C 21.24744567488922 123.07701535296786 99.12259252505305 C 0.0 **** -0.24
23442 H 20.846280325227568 122.08176320454714 99.31484682862762 H 0.0 **** 0.06
23443 H 21.49829970740457 123.16887754795249 98.06565364922375 H 0.0 **** 0.06
23444 H 22.142899158390918 123.2289714965845 99.72361708362965 H 0.0 **** 0.06
23445 H 20.500230852104437 123.8259664298156 99.38551739278131 H 0.0 **** 0.06
23446 C 9.755636427546278 6.141679315041273 127.70701117342986 C 0.0 **** -0.24
23447 H 9.74392835846163 5.215596864582736 128.28250785031236 H 0.0 **** 0.06
23448 H 9.295342763744571 5.9714406182924975 126.73402674457941 H 0.0 **** 0.06
23449 H 10.785494466120184 6.470395514417746 127.5702769608805 H 0.0 **** 0.06
23450 H 9.19721040459686 6.908691146446522 128.24444622717664 H 0.0 **** 0.06
23451 C 130.37539763603326 90.18041420675723 112.06024805978367 C 0.0 **** -0.24
23452 H 130.86806010904996 89.24369499805732 111.79943395164182 H 0.0 **** 0.06
23453 H 131.0222670229753 90.76070597936888 112.71795363995898 H 0.0 **** 0.06
23454 H 129.4359097071925 89.96667104410528 112.57018186341568 H 0.0 **** 0.06
23455 H 130.17409682348324 90.75013338579879 111.15295746145 H 0.0 **** 0.06
23456 C 52.837616987761166 158.24163867007906 107.72554623757588 C 0.0 **** -0.24
23457 H 52.431111699266665 159.16603672776273 107.31484455062929 H 0.0 **** 0.06
23458 H 53.5218619609373 158.47684841216363 108.54072252331252 H 0.0 **** 0.06
23459 H 53.37508721029724 157.7032845618818 106.94433703140618 H 0.0 **** 0.06
23460 H 52.0241266188808 157.62159779556447 108.0997171425658 H 0.0 **** 0.06
23461 C 100.47905495958281 143.80030253544035 104.5559384114743 C 0.0 **** -0.24
23462 H 100.97013222242296 144.72766273536342 104.85436834550012 H 0.0 **** 0.06
23463 H 99.39771242161328 143.9320852617461 104.6013347896195 H 0.0 **** 0.06
23464 H 100.77680364093808 142.9993390101167 105.2318158473139 H 0.0 **** 0.06
23465 H 100.77202992262409 143.5456908802637 103.5382499954153 H 0.0 **** 0.06
23466 C 21.129316115719774 75.32967381964544 5.905973205760603 C 0.0 **** -0.24
23467 H 21.541916059534685 75.79473657275511 5.010533585504447 H 0.0 **** 0.06
23468 H 21.75668890640725 74.48797129680852 6.199355942865708 H 0.0 **** 0.06
23469 H 20.11935223447182 74.97573502802942 5.698434093986634 H 0.0 **** 0.06
23470 H 21.09975645792312 76.06081611041309 6.71370357899184 H 0.0 **** 0.06
23471 C 27.067773086379447 30.466612367415692 2.1659208195685977 C 0.0 **** -0.24
23472 H 26.741929766196563 30.50179531883839 1.1263023901089966 H 0.0 **** 0.06
23473 H 26.34314056218846 29.904196742833747 2.755112272014074 H 0.0 **** 0.06
23474 H 27.144680570540686 31.481075392855345 2.5572086872753985 H 0.0 **** 0.06
23475 H 28.041341446592 29.979382015135073 2.225059928875936 H 0.0 **** 0.06
23476 C 31.642639079402272 132.85185918083118 114.06871588706582 C 0.0 **** -0.24
23477 H 32.665474937412526 132.66561322865476 113.74156694173615 H 0.0 **** 0.06
23478 H 31.051628542455674 133.21065968420106 113.22560797568167 H 0.0 **** 0.06
23479 H 31.64501186360478 133.60312766549958 114.85792004008067 H 0.0 **** 0.06
23480 H 31.20830419255833 131.9270706604234 114.44874429283215 H 0.0 **** 0.06
23481 C 50.816309864135405 10.146320263769866 159.37723470119244 C 0.0 **** -0.24
23482 H 50.296602638515395 9.203700940106444 159.20257381804439 H 0.0 **** 0.06
23483 H 51.84644455039496 9.943564295867986 159.672860773769 H 0.0 **** 0.06
23484 H 50.31259972729268 10.69776108657527 160.17052107722483 H 0.0 **** 0.06
23485 H 50.81116159269445 10.73795760707685 158.4618599524232 H 0.0 **** 0.06
23486 C 160.18883229838485 123.08266167145123 140.56805112173004 C 0.0 **** -0.24
23487 H 159.4590758160299 123.73893300934353 140.09447897737107 H 0.0 **** 0.06
23488 H 159.66895715252494 122.33330814248254 141.16625790006324 H 0.0 **** 0.06
23489 H 160.8434960888188 123.6706525747542 141.21144307758468 H 0.0 **** 0.06
23490 H 160.78331223465037 122.58707581977612 139.80116623682878 H 0.0 **** 0.06
23491 C 160.85510777220162 11.034586107578328 119.47669128414302 C 0.0 **** -0.24
23492 H 160.63384826502144 10.453708227379146 120.3721153766154 H 0.0 **** 0.06
23493 H 160.047078395331 10.911748371235198 118.75549117152755 H 0.0 **** 0.06
23494 H 161.7902807278274 10.684557298276204 119.03905493455903 H 0.0 **** 0.06
23495 H 160.95017031715093 12.087852638528275 119.74103938325871 H 0.0 **** 0.06
23496 C 88.77959174721617 14.546750119668502 154.74909678223918 C 0.0 **** -0.24
23497 H 89.51639559650987 13.746510680187924 154.68235023588426 H 0.0 **** 0.06
23498 H 87.78927552409144 14.116569757116196 154.90064821566247 H 0.0 **** 0.06
23499 H 88.78696623471222 15.12454301455216 153.82494302415978 H 0.0 **** 0.06
23500 H 89.02568399109094 15.197873257858362 155.5875873529076 H 0.0 **** 0.06
23501 C 29.244836232675198 112.56296157343192 137.49910663070074 C 0.0 **** -0.24
23502 H 29.502277922984234 112.71278535502645 136.45071319854515 H 0.0 **** 0.06
23503 H 29.96365106792082 113.08810782179711 138.128558655638 H 0.0 **** 0.06
23504 H 29.26785957711587 111.49824023362575 137.73041068799424 H 0.0 **** 0.06
23505 H 28.244683449056026 112.95314047493093 137.6869789595946 H 0.0 **** 0.06
23506 C 70.46920183450347 135.75089508001423 120.79865395795295 C 0.0 **** -0.24
23507 H 69.91883068546841 136.03984565524752 121.6937530219981 H 0.0 **** 0.06
23508 H 70.90973840366696 136.63728426601523 120.34103298252523 H 0.0 **** 0.06
23509 H 69.78859223263602 135.2760554063833 120.09093926969018 H 0.0 **** 0.06
23510 H 71.2592883436832 135.04991969267428 121.06808669913275 H 0.0 **** 0.06
23511 C 76.71735303154338 84.03114912163079 58.27220223513808 C 0.0 **** -0.24
23512 H 76.55125327520176 83.10450934726106 58.82176914581768 H 0.0 **** 0.06
23513 H 77.46205471292197 84.63419809934481 58.79224601961795 H 0.0 **** 0.06
23514 H 75.78218343191814 84.5868336279546 58.2054585055418 H 0.0 **** 0.06
23515 H 77.07469645149949 83.79850897833671 57.269019584052785 H 0.0 **** 0.06
23516 C 48.52066055804609 84.55699650269528 72.8590697440738 C 0.0 **** -0.24
23517 H 48.961042931310715 85.45152806743248 73.30075046679768 H 0.0 **** 0.06
23518 H 48.64981133048309 83.71490729768226 73.53918226464152 H 0.0 **** 0.06
23519 H 49.01439361848385 84.33902198240816 71.91161315800552 H 0.0 **** 0.06
23520 H 47.45776726938311 84.72419247350638 72.68442853503207 H 0.0 **** 0.06
23521 C 163.41678707817826 119.47821285631676 29.64163576537554 C 0.0 **** -0.24
23522 H 163.12495359523442 120.00777250315332 30.548036867238253 H 0.0 **** 0.06
23523 H 163.86484254371877 118.52087449515216 29.908432984705627 H 0.0 **** 0.06
23524 H 164.13988905280573 120.07710244168334 29.08874431165681 H 0.0 **** 0.06
23525 H 162.53619163714703 119.30759139071841 29.02170819607852 H 0.0 **** 0.06
23526 C 144.80967312417226 1.72409154950509 101.25522264918692 C 0.0 **** -0.24
23527 H 144.97752986851444 2.7568699566519967 101.56217718325632 H 0.0 **** 0.06
23528 H 143.84389553843766 1.386319467642977 101.63188413785042 H 0.0 **** 0.06
23529 H 145.59968885297627 1.0916843988738094 101.66063421540298 H 0.0 **** 0.06
23530 H 144.817437052382 1.6629003681370875 100.1671939124167 H 0.0 **** 0.06
23531 C 81.0865158340384 161.28353247785566 159.44208546327746 C 0.0 **** -0.24
23532 H 81.84577617268566 161.33309085988793 158.6616689805029 H 0.0 **** 0.06
23533 H 80.18263325640874 161.78751216977977 159.10097562740202 H 0.0 **** 0.06
23534 H 81.4591011872294 161.7724055710367 160.3419973622763 H 0.0 **** 0.06
23535 H 80.86114367604846 160.2406053714965 159.66196177133503 H 0.0 **** 0.06
23536 C 18.18597524402054 31.370359795433657 125.04161174062625 C 0.0 **** -0.24
23537 H 17.646864703102494 31.15759628952209 125.96576473246608 H 0.0 **** 0.06
23538 H 19.255857186680885 31.40362770527301 125.24641420318471 H 0.0 **** 0.06
23539 H 17.860116566821546 32.33162505654056 124.64590810302042 H 0.0 **** 0.06
23540 H 17.97877828919178 30.58742204828414 124.312157088927 H 0.0 **** 0.06
23541 C 134.24409788547325 18.967403754497397 144.36340733872947 C 0.0 **** -0.24
23542 H 133.55053892955044 19.786391810162122 144.55418659866888 H 0.0 **** 0.06
23543 H 134.42462197271914 18.886657341214615 143.29048874161398 H 0.0 **** 0.06
23544 H 133.8151156482847 18.03481953450318 144.73058455825807 H 0.0 **** 0.06
23545 H 135.18591120425776 19.161220128100943 144.87707267727828 H 0.0 **** 0.06
23546 C 113.51331386413409 159.39463690722675 147.8263754846571 C 0.0 **** -0.24
23547 H 114.30854715552678 159.84192998631403 148.42171745787056 H 0.0 **** 0.06
23548 H 113.7545033019783 158.35040224680463 147.62386164271754 H 0.0 **** 0.06
23549 H 113.41820603773806 159.93499995840094 146.8839225725709 H 0.0 **** 0.06
23550 H 112.57301578901306 159.45114143292557 148.37502014272624 H 0.0 **** 0.06
23551 C 66.09840792277282 170.06010900616434 102.99482333349076 C 0.0 **** -0.24
23552 H 65.74335382604971 169.48484553911607 103.84986234801542 H 0.0 **** 0.06
23553 H 65.47161410242802 169.84810332580818 102.12905127165118 H 0.0 **** 0.06
23554 H 67.12995615208911 169.78401900617118 102.77511042725317 H 0.0 **** 0.06
23555 H 66.04968144051111 171.12426553653756 103.22817034113899 H 0.0 **** 0.06
23556 C 153.04402212354773 169.63611903207104 24.759770032967573 C 0.0 **** -0.24
23557 H 153.3032556075579 168.58199683423987 24.656878819353345 H 0.0 **** 0.06
23558 H 153.66428219244435 170.22933165535633 24.086560211349266 H 0.0 **** 0.06
23559 H 153.21518873930162 169.953040275136 25.788132360653954 H 0.0 **** 0.06
23560 H 151.9928473535763 169.77744551745062 24.50513174157838 H 0.0 **** 0.06
23561 C 71.88079446099691 165.34444183444705 96.01525563501318 C 0.0 **** -0.24
23562 H 71.43161882850768 166.15584866355812 95.4423826996838 H 0.0 **** 0.06
23563 H 72.88976532837381 165.62838694888322 96.31652823976444 H 0.0 **** 0.06
23564 H 71.9249022031793 164.4464524631796 95.39859219747024 H 0.0 **** 0.06
23565 H 71.27879491220175 165.14791518744767 96.90160148416223 H 0.0 **** 0.06
23566 C 3.0676707840787003 47.47825289299358 42.03583092246052 C 0.0 **** -0.24
23567 H 3.791616484446479 47.06769418922012 42.73939140041807 H 0.0 **** 0.06
23568 H 2.9278376513475166 46.77952567697639 41.2099488445981 H 0.0 **** 0.06
23569 H 3.4343393730463845 48.42879157074212 41.64950265749019 H 0.0 **** 0.06
23570 H 2.1160544602351763 47.63533050773118 42.54376318572386 H 0.0 **** 0.06
23571 C 158.591530274653 141.74189130522717 2.604883669212512 C 0.0 **** -0.24
23572 H 159.05626821111775 142.71848626794517 2.743343541468704 H 0.0 **** 0.06
23573 H 158.3667448361386 141.59492564630352 1.5478425986977982 H 0.0 **** 0.06
23574 H 157.66894058229485 141.6936327543655 3.1822237086008727 H 0.0 **** 0.06
23575 H 159.2736490205877 140.96353287896503 2.943966706154214 H 0.0 **** 0.06
23576 C 95.26145708410357 44.99379490967182 132.20753221726713 C 0.0 **** -0.24
23577 H 96.17496808129403 44.517402598817455 132.56434481199392 H 0.0 **** 0.06
23578 H 95.05703741617629 44.668692544640464 131.1865012240228 H 0.0 **** 0.06
23579 H 95.3851006032395 46.076282549836705 132.22687014924082 H 0.0 **** 0.06
23580 H 94.42882434242617 44.71111575923334 132.85203001652863 H 0.0 **** 0.06
23581 C 138.53164822198806 107.74097193719115 138.0552101932347 C 0.0 **** -0.24
23582 H 138.62726539513005 106.8132583337059 137.49066079544593 H 0.0 **** 0.06
23583 H 139.46429261006813 107.94370568265603 138.5823882272428 H 0.0 **** 0.06
23584 H 137.7189056317411 107.64571636033187 138.7752956349314 H 0.0 **** 0.06
23585 H 138.3162036082765 108.56109546146826 137.37026405647651 H 0.0 **** 0.06
23586 C 44.017799181944 40.793432951150265 86.58789878039835 C 0.0 **** -0.24
23587 H 44.45311389899584 40.369231232870845 87.49299115099268 H 0.0 **** 0.06
23588 H 44.22408434251078 41.86344809065895 86.55309597331016 H 0.0 **** 0.06
23589 H 42.94050306611089 40.63078546160381 86.59248444903464 H 0.0 **** 0.06
23590 H 44.45371033796083 40.310223675396884 85.71399923240648 H 0.0 **** 0.06
23591 C 108.05397959350734 71.94886257439993 154.10112693665323 C 0.0 **** -0.24
23592 H 108.34314483538628 72.04911539804797 153.05496011435008 H 0.0 **** 0.06
23593 H 108.41508290674352 72.81195136238932 154.66142539136166 H 0.0 **** 0.06
23594 H 108.49040762663861 71.03919989077502 154.51315551374648 H 0.0 **** 0.06
23595 H 106.9674183979107 71.89694250600289 154.1735926014898 H 0.0 **** 0.06
23596 C 14.62540945838981 137.79473334133715 30.604253596870535 C 0.0 **** -0.24
23597 H 14.289840849507641 136.7654931079078 30.470546889513926 H 0.0 **** 0.06
23598 H 15.46398975459033 137.9922819387288 29.93641766825243 H 0.0 **** 0.06
23599 H 14.940874997203082 137.94179589986555 31.63747782198236 H 0.0 **** 0.06
23600 H 13.806961096840496 138.4760678479597 30.37434552417065 H 0.0 **** 0.06
23601 C 23.355539897092143 161.23627697290618 153.93056136506425 C 0.0 **** -0.24
23602 H 23.147621917580302 160.9874922869434 154.97112586241067 H 0.0 **** 0.06
23603 H 22.720740878428046 160.63504396243889 153.2790459922838 H 0.0 **** 0.06
23604 H 24.402913438881342 161.0275417666595 153.70978660158545 H 0.0 **** 0.06
23605 H 23.152451640628563 162.29403450586193 153.7615455012715 H 0.0 **** 0.06
23606 C 11.45523084419409 14.713597160348485 32.02492055390951 C 0.0 **** -0.24
23607 H 11.15178150505767 13.772843537043713 31.565397640182596 H 0.0 **** 0.06
23608 H 11.029467087540098 14.781145948425717 33.026827043113826 H 0.0 **** 0.06
23609 H 11.09452365332237 15.54608332913864 31.42003022310803 H 0.0 **** 0.06
23610 H 12.54231691646038 14.75340257032289 32.087062011028536 H 0.0 **** 0.06
23611 C 77.3900336345391 63.54806646941201 135.96006777869843 C 0.0 **** -0.24
23612 H 77.40836701522765 64.42937390447791 135.31977702709685 H 0.0 **** 0.06
23613 H 76.52521067543196 62.93364096018196 135.70840580957054 H 0.0 **** 0.06
23614 H 77.32315712630522 63.858184286901604 137.0035392423075 H 0.0 **** 0.06
23615 H 78.30254428292312 62.970977634636085 135.80967168623022 H 0.0 **** 0.06
23616 C 19.58951505996717 78.2408243371641 23.274385875920444 C 0.0 **** -0.24
23617 H 19.73770903723883 78.70772652881442 24.247416726265328 H 0.0 **** 0.06
23618 H 19.04469308221357 77.30539692699554 23.399172650131447 H 0.0 **** 0.06
23619 H 20.55773062155825 78.0394885899533 22.816301036296466 H 0.0 **** 0.06
23620 H 19.017680799146632 78.91268480976743 22.63368290998895 H 0.0 **** 0.06
23621 C 165.91615725461472 32.04416010630365 109.29640620369975 C 0.0 **** -0.24
23622 H 165.21747839369615 32.85822083550991 109.09894427833294 H 0.0 **** 0.06
23623 H 166.05327117944054 31.45668638103922 108.38836347951343 H 0.0 **** 0.06
23624 H 165.51789994627097 31.407440411917918 110.0855381916322 H 0.0 **** 0.06
23625 H 166.8745022957598 32.4578914858173 109.61015819328489 H 0.0 **** 0.06
23626 C 16.142266215033594 40.03944378799832 36.009664893083425 C 0.0 **** -0.24
23627 H 16.17176103295178 40.615322286105936 35.08401850792319 H 0.0 **** 0.06
23628 H 16.29145402764884 40.70705281724369 36.85779008581605 H 0.0 **** 0.06
23629 H 16.932104966048882 39.2881762048126 35.99517486883016 H 0.0 **** 0.06
23630 H 15.174238556041686 39.54653021012206 36.09960844200219 H 0.0 **** 0.06
23631 C 0.11048770908496408 75.99505425275306 100.29841518287824 C 0.0 **** -0.24
23632 H 0.08732892764470535 75.25468371363974 101.09812595810698 H 0.0 **** 0.06
23633 H -0.8844951677436086 76.42382683953231 100.17170930841044 H 0.0 **** 0.06
23634 H 0.42250567411952034 75.51786135214708 99.36999993096876 H 0.0 **** 0.06
23635 H 0.8156491634161682 76.7851052613844 100.556372366435 H 0.0 **** 0.06
23636 C 136.2646575131652 92.02533032272646 48.92157573681379 C 0.0 **** -0.24
23637 H 137.05722984230192 91.69593032837815 48.24996355582448 H 0.0 **** 0.06
23638 H 135.6803397190682 92.80709839525133 48.43624432199067 H 0.0 **** 0.06
23639 H 136.70599345887933 92.41726736193021 49.83818750761725 H 0.0 **** 0.06
23640 H 135.6170272762321 91.18218661292269 49.16100825976355 H 0.0 **** 0.06
23641 C 36.030039262271714 29.63975443994019 63.16134814342243 C 0.0 **** -0.24
23642 H 36.461424875531236 30.495233512691243 63.68110981326089 H 0.0 **** 0.06
23643 H 35.302157017554066 29.150431630402863 63.807673742273494 H 0.0 **** 0.06
23644 H 36.82058062476494 28.934607116226232 62.90484319662181 H 0.0 **** 0.06
23645 H 35.53774315378155 29.9789608200974 62.25006402124234 H 0.0 **** 0.06
23646 C 26.00899339394732 71.81780939837677 133.48879760018778 C 0.0 **** -0.24
23647 H 26.526099436710922 72.18534733903284 132.60258691375788 H 0.0 **** 0.06
23648 H 26.59956165294892 72.05023105921055 134.37567274504693 H 0.0 **** 0.06
23649 H 25.87757988118622 70.73927421348266 133.4116971298158 H 0.0 **** 0.06
23650 H 25.03335973365438 72.29874223318497 133.56545776161045 H 0.0 **** 0.06
23651 C 91.20102246019248 139.21301210355819 31.632483789217474 C 0.0 **** -0.24
23652 H 91.48920919783079 140.20039891490774 31.272424265297545 H 0.0 **** 0.06
23653 H 90.42451875425819 138.80384980506832 30.984675602372008 H 0.0 **** 0.06
23654 H 90.81982049056727 139.2941237033205 32.65009674755592 H 0.0 **** 0.06
23655 H 92.0688827986312 138.55480937536186 31.620747383450066 H 0.0 **** 0.06
23656 C 37.1773692035098 34.14575302748625 1.3551922725497079 C 0.0 **** -0.24
23657 H 37.64321577058338 35.08332808475416 1.6592896007831968 H 0.0 **** 0.06
23658 H 36.233620657161225 34.02132890719429 1.886156963991894 H 0.0 **** 0.06
23659 H 37.84240249105399 33.316243006875766 1.592946353745738 H 0.0 **** 0.06
23660 H 36.991024944967236 34.16600217950395 0.28125885545377116 H 0.0 **** 0.06
23661 C 136.91191655504537 51.21027373619299 79.04407149322529 C 0.0 **** -0.24
23662 H 137.45451773607664 51.172351559753 79.98774781684554 H 0.0 **** 0.06
23663 H 136.07684992214467 50.50975850694505 79.07701608755437 H 0.0 **** 0.06
23664 H 137.58209405055544 50.93969996377851 78.22833003034278 H 0.0 **** 0.06
23665 H 136.5334542478318 52.22046481354536 78.88297991037851 H 0.0 **** 0.06
23666 C 79.33816590709313 138.2283431863396 132.4015336357968 C 0.0 **** -0.24
23667 H 78.32850533816715 137.8310370563147 132.49665729056542 H 0.0 **** 0.06
23668 H 80.05746791698017 137.47770280795436 132.73076586080816 H 0.0 **** 0.06
23669 H 79.4374077966238 139.1212974689126 133.01862267246568 H 0.0 **** 0.06
23670 H 79.53123355477145 138.48414770209996 131.35935796020826 H 0.0 **** 0.06
23671 C 33.612330367453325 152.8020329170933 77.77614115962564 C 0.0 **** -0.24
23672 H 32.88206180428887 153.09275763704454 78.53228016045188 H 0.0 **** 0.06
23673 H 34.25206131720398 152.01364127286715 78.17327353584164 H 0.0 **** 0.06
23674 H 34.221612779998736 153.6661089795198 77.50971723885111 H 0.0 **** 0.06
23675 H 33.092183165587585 152.43713077037864 76.89062126163246 H 0.0 **** 0.06
23676 C 167.6020034585482 39.04244117911668 34.10459474316258 C 0.0 **** -0.24
23677 H 168.3089972580319 39.315603750557315 34.88750798405522 H 0.0 **** 0.06
23678 H 166.60176548426531 38.9624913809093 34.530767502081716 H 0.0 **** 0.06
23679 H 167.89058915631153 38.08421249496175 33.67227972296945 H 0.0 **** 0.06
23680 H 167.6066474082717 39.808254307702825 33.32842730383632 H 0.0 **** 0.06
23681 C 69.3625990436618 80.03048227670678 70.81542535280728 C 0.0 **** -0.24
23682 H 69.11552187912046 79.31478666351288 70.03062226972108 H 0.0 **** 0.06
23683 H 68.47862102488448 80.61928097460361 71.06023985158555 H 0.0 **** 0.06
23684 H 70.15585865661204 80.69146999312636 70.46637434303761 H 0.0 **** 0.06
23685 H 69.70021515135076 79.49393932988517 71.70247621514419 H 0.0 **** 0.06
23686 C 146.6819468604155 87.98236800537055 112.55981744871596 C 0.0 **** -0.24
23687 H 145.8618565308662 88.0480750733386 113.27501296400877 H 0.0 **** 0.06
23688 H 146.55847816379463 88.74938925593072 111.79549745201939 H 0.0 **** 0.06
23689 H 146.67671557129677 86.99764253003252 112.09207439123443 H 0.0 **** 0.06
23690 H 147.62847278698752 88.13334205738272 113.07836607406477 H 0.0 **** 0.06
23691 C 172.57696396268597 105.61358382699893 32.73852363358753 C 0.0 **** -0.24
23692 H 173.6038973053135 105.26016523106142 32.83413433292304 H 0.0 **** 0.06
23693 H 171.89458112970237 104.85376347527887 33.118229915838356 H 0.0 **** 0.06
23694 H 172.3571050543257 105.8089623505378 31.688900614959834 H 0.0 **** 0.06
23695 H 172.45411353090932 106.53231395111294 33.31190562711063 H 0.0 **** 0.06
23696 C 15.505443086274937 19.54199072654245 15.017561609778767 C 0.0 **** -0.24
23697 H 15.947713695563337 20.49703950727951 15.303802352792275 H 0.0 **** 0.06
23698 H 14.646150670479557 19.335161503556606 15.654915813950112 H 0.0 **** 0.06
23699 H 16.245371041893037 18.750391889075615 15.135553492577287 H 0.0 **** 0.06
23700 H 15.185002132700184 19.587217346821376 13.976689218826863 H 0.0 **** 0.06
23701 C 81.59114768506703 150.22791626382758 146.99080097799217 C 0.0 **** -0.24
23702 H 81.543833478569 149.21675857823078 147.39475726144988 H 0.0 **** 0.06
23703 H 80.74490508822701 150.8071476530842 147.36174933252997 H 0.0 **** 0.06
23704 H 81.55312341929681 150.18580271984382 145.90193422281533 H 0.0 **** 0.06
23705 H 82.52132877829453 150.70177124163675 147.30468596380805 H 0.0 **** 0.06
23706 C 136.77990650679283 135.3421552390246 54.71531519772512 C 0.0 **** -0.24
23707 H 136.76973561419584 134.2589196854518 54.8394944889215 H 0.0 **** 0.06
23708 H 136.30491540319048 135.8100264362633 55.57816118921407 H 0.0 **** 0.06
23709 H 136.23500448966777 135.60877154647892 53.810704413104574 H 0.0 **** 0.06
23710 H 137.8106541959162 135.68842274807673 54.63522014889435 H 0.0 **** 0.06
23711 C 153.48370200978928 13.509587251186929 53.797880668450915 C 0.0 **** -0.24
23712 H 154.33744961117378 14.184416575827179 53.86855338937181 H 0.0 **** 0.06
23713 H 153.18283185017896 13.412551368330533 52.7550847397885 H 0.0 **** 0.06
23714 H 152.65390595814773 13.913740420453806 54.37908025373076 H 0.0 **** 0.06
23715 H 153.75953082115325 12.53145832893513 54.1906037692155 H 0.0 **** 0.06
23716 C 170.69656361789293 133.25081051789985 6.279493008729958 C 0.0 **** -0.24
23717 H 169.7103443273806 133.01602286757873 6.679582308201191 H 0.0 **** 0.06
23718 H 171.26564203738644 133.81099006842118 7.021858031444708 H 0.0 **** 0.06
23719 H 170.5884171711542 133.8509392603429 5.375663908812669 H 0.0 **** 0.06
23720 H 171.22116933666229 132.32600356846825 6.040706253952777 H 0.0 **** 0.06
23721 C 13.864748227831399 154.01207966501286 94.64329598886175 C 0.0 **** -0.24
23722 H 14.026900786749252 153.7114553040726 95.67833691693752 H 0.0 **** 0.06
23723 H 13.900844512255787 153.13176194496495 94.00000055860676 H 0.0 **** 0.06
23724 H 14.641814611012563 154.7143078820563 94.34295863522726 H 0.0 **** 0.06
23725 H 12.888332702565577 154.4886069634519 94.55197972261857 H 0.0 **** 0.06
23726 C 162.92947138639317 6.474429374456662 42.350958185704485 C 0.0 **** -0.24
23727 H 162.71558452983717 7.15438057550918 43.175531383787586 H 0.0 **** 0.06
23728 H 163.4176434941489 7.022055242842271 41.54544651151849 H 0.0 **** 0.06
23729 H 161.9974368042156 6.044103407754051 41.98517098947917 H 0.0 **** 0.06
23730 H 163.58579705447323 5.677442212550346 42.699387870606415 H 0.0 **** 0.06
23731 C 159.1629158352583 163.43411104870052 14.878169709529743 C 0.0 **** -0.24
23732 H 159.5040102320475 164.29735765729436 15.449890007119649 H 0.0 **** 0.06
23733 H 158.89696213098497 163.74874039327688 13.868500349225314 H 0.0 **** 0.06
23734 H 158.2905811036223 162.99723941969546 15.36482615541405 H 0.0 **** 0.06
23735 H 159.96083912796095 162.69264366063868 14.82895855163693 H 0.0 **** 0.06
23736 C 71.66358390210462 136.4888458424761 157.89866280308829 C 0.0 **** -0.24
23737 H 72.21717659495386 137.35591157550374 157.5377523684499 H 0.0 **** 0.06
23738 H 70.60308541506754 136.73622357365127 157.96003416851045 H 0.0 **** 0.06
23739 H 72.02938784596904 136.2098041831078 158.8861127379152 H 0.0 **** 0.06
23740 H 71.80403621981048 135.65620546640508 157.20977578689974 H 0.0 **** 0.06
23741 C 162.9734740608512 28.69317681878556 160.7368631240006 C 0.0 **** -0.24
23742 H 163.0503829419611 27.731488841817125 161.24399963384155 H 0.0 **** 0.06
23743 H 163.7193288293479 29.378280154540022 161.14172397650017 H 0.0 **** 0.06
23744 H 161.97734779393434 29.10733391852328 160.8929193425966 H 0.0 **** 0.06
23745 H 163.14733537255313 28.55600162890454 159.6695799387165 H 0.0 **** 0.06
23746 C 77.47147948876136 124.64670556475554 163.05003600918067 C 0.0 **** -0.24
23747 H 77.7732946272281 125.14108280707288 162.1268247973747 H 0.0 **** 0.06
23748 H 77.28768505298501 125.39707105327562 163.82024732988987 H 0.0 **** 0.06
23749 H 78.26364812386731 123.97456175393805 163.37888813094438 H 0.0 **** 0.06
23750 H 76.55944687388671 124.07571742312919 162.87409495188402 H 0.0 **** 0.06
23751 C 115.03243106169754 13.256775113431047 15.334924981858435 C 0.0 **** -0.24
23752 H 114.05652490916009 13.103549926106268 14.873304539832247 H 0.0 **** 0.06
23753 H 115.04405329597165 12.795797218471307 16.322446871024106 H 0.0 **** 0.06
23754 H 115.22478555081233 14.325635838531412 15.429183629933085 H 0.0 **** 0.06
23755 H 115.80377792931637 12.802731542355389 14.711886729360486 H 0.0 **** 0.06
23756 C 79.41214495520359 18.977328608683933 54.43182609241502 C 0.0 **** -0.24
23757 H 79.76002292360829 18.39771952262987 53.57617929655561 H 0.0 **** 0.06
23758 H 79.80738306856938 19.99142858307954 54.367839550432905 H 0.0 **** 0.06
23759 H 79.75947003713605 18.5088536500096 55.352640776703 H 0.0 **** 0.06
23760 H 78.3223311411432 19.010201809717614 54.42910444938883 H 0.0 **** 0.06
23761 C 164.59319030324085 140.0068955407151 95.29880266602251 C 0.0 **** -0.24
23762 H 165.02870430825982 140.90303000602418 94.85826354145723 H 0.0 **** 0.06
23763 H 165.33214161394514 139.20554949451352 95.29622144525032 H 0.0 **** 0.06
23764 H 163.72306412979475 139.70142997627704 94.71684008615605 H 0.0 **** 0.06
23765 H 164.2888511609636 140.21757268604563 96.32388559122637 H 0.0 **** 0.06
23766 C 9.012788585628698 70.13888062026018 132.31763113818755 C 0.0 **** -0.24
23767 H 9.38953507159323 70.80954195273921 131.5458367176445 H 0.0 **** 0.06
23768 H 8.157222340793908 70.6001251228164 132.81329852614527 H 0.0 **** 0.06
23769 H 9.798335543937014 69.94892762699078 133.04957993718875 H 0.0 **** 0.06
23770 H 8.7042214620177 69.19770368311845 131.86192234424524 H 0.0 **** 0.06
23771 C 51.593277959117174 39.451198105605854 105.60598070596802 C 0.0 **** -0.24
23772 H 50.898818528580065 38.74419132225813 106.06093314404873 H 0.0 **** 0.06
23773 H 52.25410200279347 39.85601029948461 106.37226384306055 H 0.0 **** 0.06
23774 H 51.03177252641322 40.26385132820705 105.14490741583117 H 0.0 **** 0.06
23775 H 52.18478845732072 38.94086315074601 104.8467161188461 H 0.0 **** 0.06
23776 C 153.3812627293499 24.036536978861534 158.37253176948118 C 0.0 **** -0.24
23777 H 152.98624771578991 23.36298965079328 157.61202449131585 H 0.0 **** 0.06
23778 H 154.22265961978306 24.594715431785175 157.9615022299254 H 0.0 **** 0.06
23779 H 153.7144399031429 23.456459548980888 159.2332305185911 H 0.0 **** 0.06
23780 H 152.60040227423414 24.731435752675253 158.68345115164573 H 0.0 **** 0.06
23781 C 100.67099252275477 100.12081863704583 46.97528255813117 C 0.0 **** -0.24
23782 H 100.50713927171867 99.78100315633839 47.99858494472933 H 0.0 **** 0.06
23783 H 101.45780498142119 99.52270178454995 46.515850773340645 H 0.0 **** 0.06
23784 H 100.96997756412117 101.16923267523526 46.985438854601526 H 0.0 **** 0.06
23785 H 99.74938170872875 100.01040828472878 46.40455475627013 H 0.0 **** 0.06
23786 C 105.72533307000677 37.12016884534518 49.26063495859272 C 0.0 **** -0.24
23787 H 106.27629213777385 37.15715432165973 48.32108966798545 H 0.0 **** 0.06
23788 H 104.67562440963593 36.90592480791997 49.056592211477465 H 0.0 **** 0.06
23789 H 105.80908386775405 38.08093732505853 49.76731916146399 H 0.0 **** 0.06
23790 H 106.14063313838406 36.337366616986 49.89447143495427 H 0.0 **** 0.06
23791 C 89.5908110876624 168.62846601735157 66.24751763652625 C 0.0 **** -0.24
23792 H 88.86141440651465 169.4275863380393 66.11071700121597 H 0.0 **** 0.06
23793 H 90.36949458425555 168.71413000453987 65.48992416680092 H 0.0 **** 0.06
23794 H 89.09278210918623 167.66321597207178 66.15072559231493 H 0.0 **** 0.06
23795 H 90.03545338241791 168.70928668100078 67.23844769530679 H 0.0 **** 0.06
23796 C 157.0958613770389 162.35894830610837 25.561944124387765 C 0.0 **** -0.24
23797 H 156.23433464762735 162.91560381971888 25.932684679100078 H 0.0 **** 0.06
23798 H 157.19127365344042 162.51284216242902 24.48656493780652 H 0.0 **** 0.06
23799 H 156.95789238555366 161.297925122458 25.767520186334423 H 0.0 **** 0.06
23800 H 157.99730701178726 162.71198895390168 26.061680276985783 H 0.0 **** 0.06
23801 C 159.45980028129384 106.59251893977952 111.68663929894825 C 0.0 **** -0.24
23802 H 159.76050734169462 105.9118971563581 112.48205767196842 H 0.0 **** 0.06
23803 H 160.2225145977704 106.59956199199712 110.90731235814297 H 0.0 **** 0.06
23804 H 159.3446178865103 107.59798230351066 112.09182398943446 H 0.0 **** 0.06
23805 H 158.5114114787705 106.26151139348221 111.26387712194818 H 0.0 **** 0.06
23806 C 34.08936390627076 52.703618797325106 119.3356799556023 C 0.0 **** -0.24
23807 H 35.00394884566113 52.42958199162027 119.86198064474758 H 0.0 **** 0.06
23808 H 33.5780828457263 51.799613219239376 119.00180448041417 H 0.0 **** 0.06
23809 H 34.33811092137432 53.319942713063966 118.47211298023444 H 0.0 **** 0.06
23810 H 33.437607152225894 53.26314221100027 120.0065129166561 H 0.0 **** 0.06
23811 C 143.55580297498827 68.14658153187949 148.0921563821234 C 0.0 **** -0.24
23812 H 143.89490348282996 68.63012683748047 149.00774577715092 H 0.0 **** 0.06
23813 H 143.08675137082804 67.19368421604511 148.33738379640016 H 0.0 **** 0.06
23814 H 144.40776073915526 67.974547240182 147.43453844622383 H 0.0 **** 0.06
23815 H 142.83299381496835 68.78848429238252 147.58865866964894 H 0.0 **** 0.06
23816 C 25.718726893995694 118.63385330858858 149.8585770807595 C 0.0 **** -0.24
23817 H 25.120831919797325 118.38777466306632 148.98136897033444 H 0.0 **** 0.06
23818 H 25.971069183165753 119.69392182688307 149.84087735261002 H 0.0 **** 0.06
23819 H 26.63419682608253 118.04183235989373 149.85050244386977 H 0.0 **** 0.06
23820 H 25.149704346990575 118.40988737649272 150.7610995448674 H 0.0 **** 0.06
23821 C 47.85458527119201 60.28538997712596 159.65364956442576 C 0.0 **** -0.24
23822 H 47.720556085345336 60.21707388263276 158.5740731317559 H 0.0 **** 0.06
23823 H 48.644682388400426 61.00175956743112 159.87653364401604 H 0.0 **** 0.06
23824 H 48.12981612939123 59.305999325231255 160.04732730322448 H 0.0 **** 0.06
23825 H 46.92364332363911 60.612963145192836 160.11501932830612 H 0.0 **** 0.06
23826 C 47.482417256556346 114.29129899405947 124.90814259144315 C 0.0 **** -0.24
23827 H 47.697338844954515 114.70865959200242 125.89250129730132 H 0.0 **** 0.06
23828 H 48.24432587444005 113.55431296647035 124.65218738469284 H 0.0 **** 0.06
23829 H 47.485057704630776 115.08922687209136 124.16654076129626 H 0.0 **** 0.06
23830 H 46.5036885103641 113.81112429195963 124.92377906062953 H 0.0 **** 0.06
23831 C 65.45745162380996 51.32440192014414 129.85395517111021 C 0.0 **** -0.24
23832 H 64.6898503577403 50.69508983682074 129.4023460329398 H 0.0 **** 0.06
23833 H 66.41206694112823 51.14267097974262 129.3595599201655 H 0.0 **** 0.06
23834 H 65.5446871360837 51.08619934493208 130.9133529451707 H 0.0 **** 0.06
23835 H 65.18073778098959 52.372396284427424 129.73803945977275 H 0.0 **** 0.06
23836 C 161.65833614544013 113.32419180750608 150.28449107238902 C 0.0 **** -0.24
23837 H 161.53671515022515 112.60323323356133 149.475513150086 H 0.0 **** 0.06
23838 H 161.01365403599743 113.04400728076192 151.11831769080806 H 0.0 **** 0.06
23839 H 161.38404637577176 114.31703108578694 149.9300641654824 H 0.0 **** 0.06
23840 H 162.69694752803136 113.32845190747699 150.61275679932956 H 0.0 **** 0.06
23841 C 105.5815174353375 143.1569019345145 68.35734652748192 C 0.0 **** -0.24
23842 H 105.46883145434995 143.1117414129934 69.44009282896005 H 0.0 **** 0.06
23843 H 105.44037816388658 144.18358750698047 68.01885186022443 H 0.0 **** 0.06
23844 H 104.83669205569191 142.5144561190083 67.88784816946577 H 0.0 **** 0.06
23845 H 106.57964412986757 142.81788763863338 68.08094359795362 H 0.0 **** 0.06
23846 C 10.43346798460199 51.935521492037964 35.837096374156914 C 0.0 **** -0.24
23847 H 10.010511676980911 51.10672573924592 36.40527659341856 H 0.0 **** 0.06
23848 H 11.478256894543904 52.06989612692138 36.11512109187082 H 0.0 **** 0.06
23849 H 9.877625139292356 52.84661498343428 36.05696348513081 H 0.0 **** 0.06
23850 H 10.364510107111343 51.71661180315937 34.77145452582235 H 0.0 **** 0.06
23851 C 159.48455221153057 137.19814847897504 100.13603407208393 C 0.0 **** -0.24
23852 H 159.4421024133208 138.28273294500124 100.03426105827938 H 0.0 **** 0.06
23853 H 159.2855869534539 136.92286400468768 101.17130671392144 H 0.0 **** 0.06
23854 H 160.47530913228246 136.84526989936649 99.84948456378777 H 0.0 **** 0.06
23855 H 158.73525544817358 136.74318853034296 99.48771932710122 H 0.0 **** 0.06
23856 C 76.15365720397762 97.83748894922647 155.07604737647517 C 0.0 **** -0.24
23857 H 76.44766384316574 98.2306257716595 154.10278599141031 H 0.0 **** 0.06
23858 H 76.19748694523241 96.74911106544997 155.05534259994812 H 0.0 **** 0.06
23859 H 75.13709231346638 98.15724711097016 155.30452652083198 H 0.0 **** 0.06
23860 H 76.83441211839727 98.21532024704251 155.8396961678435 H 0.0 **** 0.06
23861 C 68.14179739864527 7.285524038900455 85.12075904474382 C 0.0 **** -0.24
23862 H 68.66420865195482 7.121698748541199 86.06370229000635 H 0.0 **** 0.06
23863 H 67.65068463804951 8.2587817992776 85.14231815378156 H 0.0 **** 0.06
23864 H 67.39523809330528 6.504101010271192 84.97971142021795 H 0.0 **** 0.06
23865 H 68.85783654924705 7.256776606605577 84.29950652454343 H 0.0 **** 0.06
23866 C 34.429469098531 41.12337646806819 0.5468909660600616 C 0.0 **** -0.24
23867 H 35.24330034631319 40.446625252154234 0.8047952919592376 H 0.0 **** 0.06
23868 H 33.68757267670293 41.12035695015345 1.346210552413936 H 0.0 **** 0.06
23869 H 33.96384449691607 40.79431142368571 -0.3825481850141159 H 0.0 **** 0.06
23870 H 34.822191597958806 42.1313068164618 0.41861160464020486 H 0.0 **** 0.06
23871 C 159.00338572364038 128.7046458960612 163.2989677812193 C 0.0 **** -0.24
23872 H 158.07152632006952 128.14302695522434 163.3515449502766 H 0.0 **** 0.06
23873 H 158.8020130719303 129.76112634881184 163.47562928742283 H 0.0 **** 0.06
23874 H 159.44746187329503 128.5793857148779 162.3122087412247 H 0.0 **** 0.06
23875 H 159.69319258100643 128.33395167107727 164.05766370019623 H 0.0 **** 0.06
23876 C 25.949220466506574 118.74818923628487 123.21780999287859 C 0.0 **** -0.24
23877 H 25.183296922483862 118.08034750085159 122.82401980061732 H 0.0 **** 0.06
23878 H 26.778517977312504 118.80631997612119 122.51155176016192 H 0.0 **** 0.06
23879 H 26.309385099903693 118.36476509740214 124.1715135635828 H 0.0 **** 0.06
23880 H 25.524550777527395 119.74293563814598 123.36212391657489 H 0.0 **** 0.06
23881 C 84.8773904459004 120.21684699939829 112.66489161382614 C 0.0 **** -0.24
23882 H 85.85926766458425 120.411997355144 113.09477255002307 H 0.0 **** 0.06
23883 H 84.36316821601162 121.16145462749421 112.49042360654025 H 0.0 **** 0.06
23884 H 84.2938978200188 119.60754083885615 113.35518832305246 H 0.0 **** 0.06
23885 H 84.99343256670647 119.68530576307697 111.72112401207752 H 0.0 **** 0.06
23886 C 60.055259838726855 152.60594379186875 8.582017257764967 C 0.0 **** -0.24
23887 H 59.91899983443399 153.38151157804487 7.828328989490977 H 0.0 **** 0.06
23888 H 61.09396584085938 152.2727145257619 8.577291303575777 H 0.0 **** 0.06
23889 H 59.40188280303616 151.76291464404397 8.358235045966495 H 0.0 **** 0.06
23890 H 59.8074128294233 153.00716857070938 9.56468440396165 H 0.0 **** 0.06
23891 C 55.37481766038049 62.627978180477186 137.76231037283566 C 0.0 **** -0.24
23892 H 55.449471295221514 62.21613851465641 136.7562318027046 H 0.0 **** 0.06
23893 H 54.425447673169444 62.32796195167835 138.20758345327218 H 0.0 **** 0.06
23894 H 55.425651733741105 63.71598009661132 137.71384462558493 H 0.0 **** 0.06
23895 H 56.197148866684174 62.251455538036 138.37090899255375 H 0.0 **** 0.06
23896 C 114.51133591078343 152.49290894444397 71.51825327876458 C 0.0 **** -0.24
23897 H 114.70516073935943 151.92061430615186 72.42481653388273 H 0.0 **** 0.06
23898 H 113.81284402746297 151.94458582359135 70.8854641722238 H 0.0 **** 0.06
23899 H 115.4459433099602 152.6473805453353 70.9794261197049 H 0.0 **** 0.06
23900 H 114.08151408181965 153.4583353603963 71.78399036017572 H 0.0 **** 0.06
23901 C 142.66619101038415 108.30141641687575 102.46884769535046 C 0.0 **** -0.24
23902 H 142.48535172817606 107.86827788006659 103.45316592511824 H 0.0 **** 0.06
23903 H 143.5790783139933 107.8796948837549 102.04916938617413 H 0.0 **** 0.06
23904 H 142.7739099934077 109.38194679877273 102.56270873897228 H 0.0 **** 0.06
23905 H 141.82633617722374 108.07584410036714 101.8127927177677 H 0.0 **** 0.06
23906 C 103.29920561466457 155.81816747849183 2.1448330658887684 C 0.0 **** -0.24
23907 H 103.12766972029084 156.87115961712527 1.9213444092207865 H 0.0 **** 0.06
23908 H 103.65773993900899 155.31104583313038 1.249751546568291 H 0.0 **** 0.06
23909 H 102.36565353941626 155.36084709749173 2.473059794062209 H 0.0 **** 0.06
23910 H 104.04436710350734 155.7320213732651 2.936309166331668 H 0.0 **** 0.06
23911 C 22.445459801792076 107.7627135412709 0.7546568055792733 C 0.0 **** -0.24
23912 H 23.21727122676083 108.40914047467282 1.174834845412029 H 0.0 **** 0.06
23913 H 22.396847406414132 106.83745703602415 1.3280287571366856 H 0.0 **** 0.06
23914 H 22.687102976301873 107.536601790237 -0.2828017111960648 H 0.0 **** 0.06
23915 H 21.482154659466325 108.27108479723017 0.8011870835716408 H 0.0 **** 0.06
23916 C 78.78121997003097 36.61300648254975 70.55948656348444 C 0.0 **** -0.24
23917 H 79.09624337193026 37.29552006071937 71.34916793751694 H 0.0 **** 0.06
23918 H 79.21775239052627 35.6295272395368 70.7334009321887 H 0.0 **** 0.06
23919 H 79.11714363145563 36.99438630293132 69.59481929805771 H 0.0 **** 0.06
23920 H 77.693986058387 36.533561428412725 70.56053432249377 H 0.0 **** 0.06
23921 C 80.7080879114282 16.466419105015376 70.75698514310291 C 0.0 **** -0.24
23922 H 80.32330072217042 16.288516409740794 71.76194070338116 H 0.0 **** 0.06
23923 H 80.43004514343826 17.470376830121324 70.4348200980225 H 0.0 **** 0.06
23924 H 80.2832739433836 15.734115285516282 70.07092510615682 H 0.0 **** 0.06
23925 H 81.79390929349186 16.374067065063855 70.76190417443874 H 0.0 **** 0.06
23926 C 171.14964133083512 59.12914062564306 3.9970562724292904 C 0.0 **** -0.24
23927 H 170.76972415317974 58.290843038593096 3.4125057634155382 H 0.0 **** 0.06
23928 H 172.23616927969528 59.064185246047884 4.0619255583985705 H 0.0 **** 0.06
23929 H 170.7228340001028 59.09420025399959 4.999602465151838 H 0.0 **** 0.06
23930 H 170.8693859609853 60.064927162791236 3.514248185947338 H 0.0 **** 0.06
23931 C 169.40279843020087 137.39637573278432 103.68127028156249 C 0.0 **** -0.24
23932 H 168.9063045942686 136.4972507561713 104.04681555232267 H 0.0 **** 0.06
23933 H 169.6231826016882 137.28263128130226 102.61919625354128 H 0.0 **** 0.06
23934 H 170.33212769169415 137.5460396468808 104.23107572729003 H 0.0 **** 0.06
23935 H 168.75055260881376 138.2568097706797 103.82860263542497 H 0.0 **** 0.06
23936 C 126.65355709280027 128.9160226239377 130.71954970088274 C 0.0 **** -0.24
23937 H 126.55539937989414 129.9491952450182 131.0512522116728 H 0.0 **** 0.06
23938 H 127.62053380741494 128.52414546867485 131.03395468765856 H 0.0 **** 0.06
23939 H 126.58084330367416 128.87530424462204 129.6321555961937 H 0.0 **** 0.06
23940 H 125.85683051196727 128.31506951734127 131.15962281459835 H 0.0 **** 0.06
23941 C 137.77331594200615 22.707859756727345 72.98788844749083 C 0.0 **** -0.24
23942 H 137.96085893319497 23.768405799392127 72.82095164997929 H 0.0 **** 0.06
23943 H 137.7872258718849 22.50016040970678 74.05773080705899 H 0.0 **** 0.06
23944 H 138.54736858199573 22.12124762536388 72.49289864152308 H 0.0 **** 0.06
23945 H 136.7980201219919 22.442483011312845 72.57791835570686 H 0.0 **** 0.06
23946 C 22.97965462373145 32.083228139062726 35.545144573512175 C 0.0 **** -0.24
23947 H 22.247729080281545 31.69989130997999 34.83310728318668 H 0.0 **** 0.06
23948 H 23.88471392966727 32.37534895710837 35.01192577732962 H 0.0 **** 0.06
23949 H 23.21949240509639 31.307321812216514 36.27147326479434 H 0.0 **** 0.06
23950 H 22.5658831553377 32.94883390652339 36.0604580260449 H 0.0 **** 0.06
23951 C 134.59741278762277 158.00044099513607 57.84823801521287 C 0.0 **** -0.24
23952 H 135.63248193235697 157.73664186259793 57.63191635991075 H 0.0 **** 0.06
23953 H 134.5413172779331 159.05458676679285 58.12023834230672 H 0.0 **** 0.06
23954 H 134.23266873280213 157.39131345688622 58.67621364527281 H 0.0 **** 0.06
23955 H 133.98420245417574 157.8183095786076 56.96604279796213 H 0.0 **** 0.06
23956 C 2.8654601912441535 112.41232007803404 119.38812467047168 C 0.0 **** -0.24
23957 H 2.926489718999079 113.126425433338 120.21018559343952 H 0.0 **** 0.06
23958 H 1.8950279054254224 111.91549161953725 119.41005349127863 H 0.0 **** 0.06
23959 H 3.6566033179004194 111.67072922821052 119.49215692551658 H 0.0 **** 0.06
23960 H 2.9834613990051935 112.93937152321979 118.44166460416002 H 0.0 **** 0.06
23961 C 13.923964452464936 6.898636058684502 2.1508095390373114 C 0.0 **** -0.24
23962 H 14.015551577553559 6.820762717026469 3.2336048532853567 H 0.0 **** 0.06
23963 H 14.895384783629929 6.719277581262304 1.690657122067421 H 0.0 **** 0.06
23964 H 13.575430652584984 7.8977562541257385 1.8873285352087237 H 0.0 **** 0.06
23965 H 13.209252432208935 6.158083139835583 1.7920473851978045 H 0.0 **** 0.06
23966 C 58.95466208281738 134.8984678880379 76.51849675572134 C 0.0 **** -0.24
23967 H 59.93740757892721 134.67380389021156 76.93233554903352 H 0.0 **** 0.06
23968 H 58.64476640009315 134.087344660937 75.85889537062782 H 0.0 **** 0.06
23969 H 59.001258239280446 135.82941118667097 75.95325294617726 H 0.0 **** 0.06
23970 H 58.234476683733305 135.0021875630412 77.32993831139241 H 0.0 **** 0.06
23971 C 61.1359384974095 131.42194672696007 42.040028393426724 C 0.0 **** -0.24
23972 H 61.97381729724603 131.5695986827578 41.35807148552931 H 0.0 **** 0.06
23973 H 60.307757234773035 132.06510424596016 41.74184825220601 H 0.0 **** 0.06
23974 H 61.44456472075463 131.67322346221218 43.0543049902779 H 0.0 **** 0.06
23975 H 60.81905509050857 130.37940255085672 42.004240880848045 H 0.0 **** 0.06
23976 C 68.67797265647621 93.17666521895208 34.14084366395912 C 0.0 **** -0.24
23977 H 67.87834672229958 93.89356223298608 33.95561891109355 H 0.0 **** 0.06
23978 H 69.32503694154666 93.55072763202759 34.934689572674756 H 0.0 **** 0.06
23979 H 69.262077443199 93.03966841865741 33.23044777291983 H 0.0 **** 0.06
23980 H 68.24688676686988 92.22143250513909 34.44219666565732 H 0.0 **** 0.06
23981 C 16.482358532593317 8.610594116413154 111.56175021703214 C 0.0 **** -0.24
23982 H 15.951392565258146 7.906345329026919 110.92041410954974 H 0.0 **** 0.06
23983 H 17.488618363836288 8.769324911644958 111.17306539353493 H 0.0 **** 0.06
23984 H 16.54126593590003 8.207478954411528 112.57255497450325 H 0.0 **** 0.06
23985 H 15.945378514587745 9.559218160725692 111.57983558886053 H 0.0 **** 0.06
23986 C 54.97721271456882 148.4372136489135 76.7610139228303 C 0.0 **** -0.24
23987 H 55.08957601535435 147.48281902174332 76.2463445367068 H 0.0 **** 0.06
23988 H 55.59963190692601 148.4435926228115 77.65589539379337 H 0.0 **** 0.06
23989 H 53.93369949929715 148.57709605684488 77.04348741084482 H 0.0 **** 0.06
23990 H 55.28594343669771 149.24534689425428 76.09832834997621 H 0.0 **** 0.06
23991 C 163.4539314825325 75.66547031879871 34.951940437456955 C 0.0 **** -0.24
23992 H 164.51534132371404 75.5637489555701 34.723182637842015 H 0.0 **** 0.06
23993 H 163.07055683402757 74.71598079687683 35.32643173208788 H 0.0 **** 0.06
23994 H 162.913009674383 75.94447115075592 34.04764329562157 H 0.0 **** 0.06
23995 H 163.3186369519886 76.43737035874948 35.709240833851055 H 0.0 **** 0.06
23996 C 66.82844397160378 135.15184850849073 44.8513463527878 C 0.0 **** -0.24
23997 H 66.98983979244488 134.89934456759303 43.80269084572832 H 0.0 **** 0.06
23998 H 65.9049482377147 135.7214132607485 44.94892591150338 H 0.0 **** 0.06
23999 H 67.66503108308552 135.7492815420521 45.21383768119635 H 0.0 **** 0.06
24000 H 66.75518140511521 134.2357697257733 45.4367704917742 H 0.0 **** 0.06
24001 C 160.15873175148144 131.62932073513178 43.06075969339827 C 0.0 **** -0.24
24002 H 159.76002254574223 132.62420011022976 43.25858582242222 H 0.0 **** 0.06
24003 H 159.37735320065917 130.88675358181393 43.219277010307025 H 0.0 **** 0.06
24004 H 160.99143793484652 131.43088420367997 43.7364286758027 H 0.0 **** 0.06
24005 H 160.50717233627685 131.5763226936253 42.02907632864668 H 0.0 **** 0.06
24006 C 74.99163675511517 11.726871734194589 135.48284697051918 C 0.0 **** -0.24
24007 H 74.67869874675773 11.7142880028049 136.5276697705558 H 0.0 **** 0.06
24008 H 74.11780517433169 11.852972505227193 134.8444465325016 H 0.0 **** 0.06
24009 H 75.48727232341969 10.786451646294793 135.24124060565526 H 0.0 **** 0.06
24010 H 75.6834624156482 12.554265337534417 135.321675336311 H 0.0 **** 0.06
24011 C 71.68916398729476 75.45779726305453 136.27601645614286 C 0.0 **** -0.24
24012 H 71.71215807733427 75.5301144811674 135.18925031710427 H 0.0 **** 0.06
24013 H 72.53492166899994 74.85984696764697 136.61785942871822 H 0.0 **** 0.06
24014 H 70.75860204476356 74.9838722395291 136.58894734091686 H 0.0 **** 0.06
24015 H 71.75177625253366 76.4561975028267 136.7081354585749 H 0.0 **** 0.06
24016 C 10.892900228474915 99.41347039929215 24.59362133255277 C 0.0 **** -0.24
24017 H 10.178863918511837 100.20943540088442 24.381864270308107 H 0.0 **** 0.06
24018 H 10.648331690790293 98.952475336947 25.5510104858432 H 0.0 **** 0.06
24019 H 11.898834145096231 99.82859163273585 24.635970403934515 H 0.0 **** 0.06
24020 H 10.842936048734003 98.66220208359042 23.804821160380214 H 0.0 **** 0.06
24021 C 99.97612824736919 70.15763460029761 136.38148416314354 C 0.0 **** -0.24
24022 H 99.05864758073514 69.67147651948942 136.04891575041393 H 0.0 **** 0.06
24023 H 100.27293653329048 70.91080893074327 135.65013505769605 H 0.0 **** 0.06
24024 H 100.76610313440781 69.41312200624493 136.4775250172567 H 0.0 **** 0.06
24025 H 99.8061037727619 70.63428678732278 137.3457877961207 H 0.0 **** 0.06
24026 C 58.982384974441146 73.0768464945771 100.51089657044051 C 0.0 **** -0.24
24027 H 58.136530167805134 73.31954372308346 101.15313472812241 H 0.0 **** 0.06
24028 H 59.654931965967506 72.39918705621349 101.03682471754189 H 0.0 **** 0.06
24029 H 59.51718229274337 73.99123429704653 100.25305364569584 H 0.0 **** 0.06
24030 H 58.62170271474608 72.59768875367229 99.60109915744479 H 0.0 **** 0.06
24031 C 158.44445901430956 71.42852952073534 53.88765156033827 C 0.0 **** -0.24
24032 H 159.23997799066743 71.79082263096439 53.23656290021637 H 0.0 **** 0.06
24033 H 157.72338956820624 72.22725353778966 54.0599274115399 H 0.0 **** 0.06
24034 H 158.8719499519666 71.11252837176642 54.84033462199237 H 0.0 **** 0.06
24035 H 157.9454199911572 70.58222046383602 53.41548715906238 H 0.0 **** 0.06
24036 C 24.88082627751328 5.666853062038683 1.2851834798869746 C 0.0 **** -0.24
24037 H 23.867630531497042 5.492417743606268 1.6491407889550018 H 0.0 **** 0.06
24038 H 25.380054149867817 4.7101095320729485 1.129708232034318 H 0.0 **** 0.06
24039 H 25.434463479505382 6.250514290416305 2.020613015659414 H 0.0 **** 0.06
24040 H 24.83868791033933 6.214072565999061 0.34406748033958223 H 0.0 **** 0.06
24041 C 54.552765897827825 141.7442394095988 101.86068947965725 C 0.0 **** -0.24
24042 H 54.974944527725455 141.25969638978904 102.74101524225483 H 0.0 **** 0.06
24043 H 54.62726310221554 141.0718536191778 101.00554579388248 H 0.0 **** 0.06
24044 H 55.10513191505207 142.6608322564759 101.65203775983409 H 0.0 **** 0.06
24045 H 53.506002671246364 141.98410164308672 102.0449230703274 H 0.0 **** 0.06
24046 C 90.19878948368425 119.62682870969556 154.72924451666046 C 0.0 **** -0.24
24047 H 90.31956065274122 120.4107738622192 155.47615179170523 H 0.0 **** 0.06
24048 H 91.07171542191296 119.6107553054934 154.07538200487696 H 0.0 **** 0.06
24049 H 89.305451812414 119.82247818356072 154.13695130661895 H 0.0 **** 0.06
24050 H 90.10022518736565 118.66198931682356 155.22829286553298 H 0.0 **** 0.06
24051 C 118.83556041404773 39.49013953544345 131.98337532452624 C 0.0 **** -0.24
24052 H 119.64254550597394 40.016303392818244 132.49258924933653 H 0.0 **** 0.06
24053 H 118.9155188127159 38.42159197560372 132.18529604112135 H 0.0 **** 0.06
24054 H 118.90853557368001 39.664198760203405 130.91011991199875 H 0.0 **** 0.06
24055 H 117.87577990174526 39.85805202854381 132.3468419197315 H 0.0 **** 0.06
24056 C 27.089630838880133 8.000939521726878 133.55767137635166 C 0.0 **** -0.24
24057 H 26.25505179259475 8.472808226333001 134.07574174948263 H 0.0 **** 0.06
24058 H 26.717842131873873 7.179198393983938 132.94409993545364 H 0.0 **** 0.06
24059 H 27.79991787526214 7.61613902359764 134.28999651541218 H 0.0 **** 0.06
24060 H 27.584571438679987 8.734215079088187 132.92216929097071 H 0.0 **** 0.06
24061 C 88.67955441492433 93.42822798535795 50.87174328329017 C 0.0 **** -0.24
24062 H 88.5408561052759 93.27752163008253 51.94286866843794 H 0.0 **** 0.06
24063 H 87.72336649918054 93.6826045644182 50.41479536229939 H 0.0 **** 0.06
24064 H 89.06630957298773 92.51309644616299 50.42352693569528 H 0.0 **** 0.06
24065 H 89.3880510453069 94.24094501424611 50.70928786756558 H 0.0 **** 0.06
24066 C 124.20372231631075 107.69697383693119 109.80190280588195 C 0.0 **** -0.24
24067 H 124.23080498258636 108.41134799859813 108.97904724576168 H 0.0 **** 0.06
24068 H 124.78502565932828 108.08372377845862 110.63877202134475 H 0.0 **** 0.06
24069 H 124.62658597994928 106.74783064021659 109.47250835922404 H 0.0 **** 0.06
24070 H 123.17066301735733 107.54440856299587 110.11573959721994 H 0.0 **** 0.06
24071 C 111.11693727233668 113.25000396986587 34.97213018117611 C 0.0 **** -0.24
24072 H 110.65365266305506 113.1137602801968 35.94918095009524 H 0.0 **** 0.06
24073 H 111.42794186152841 112.28132974435778 34.58021999941079 H 0.0 **** 0.06
24074 H 111.98680217858944 113.898914325747 35.070076894803094 H 0.0 **** 0.06
24075 H 110.39863966338606 113.70465047730909 34.29066759690613 H 0.0 **** 0.06
24076 C 28.966191646438034 54.83733626701314 41.49715278103224 C 0.0 **** -0.24
24077 H 29.153653866756514 53.8855686776991 41.00081163211007 H 0.0 **** 0.06
24078 H 29.91697515658879 55.30664802080577 41.753793455109644 H 0.0 **** 0.06
24079 H 28.38844204447514 54.66600143502208 42.40579351128292 H 0.0 **** 0.06
24080 H 28.406816129325506 55.49177664041525 40.82878012427318 H 0.0 **** 0.06
24081 C 20.76031307415144 6.691840297838553 78.70250569775828 C 0.0 **** -0.24
24082 H 19.750330439654675 6.80178343577353 79.09925979079094 H 0.0 **** 0.06
24083 H 21.12030616067409 5.681534536648883 78.90069367207388 H 0.0 **** 0.06
24084 H 21.419371058927624 7.414121118439255 79.18414474486542 H 0.0 **** 0.06
24085 H 20.74985769724657 6.870268054662176 77.62764413339619 H 0.0 **** 0.06
24086 C 63.256166032195694 111.54949818056988 141.3007732571179 C 0.0 **** -0.24
24087 H 63.32076613139634 112.47952692443195 140.7344724573178 H 0.0 **** 0.06
24088 H 62.77685685881892 111.74204889986976 142.26116804660973 H 0.0 **** 0.06
24089 H 64.2577469832745 111.15525685645153 141.46730407142132 H 0.0 **** 0.06
24090 H 62.6680102080997 110.82297952172476 140.73994569447015 H 0.0 **** 0.06
24091 C 143.03524511764522 117.93885966756784 134.8863665680081 C 0.0 **** -0.24
24092 H 142.72204707866064 117.26330605950622 135.68158003651337 H 0.0 **** 0.06
24093 H 142.25005276169787 118.00175163436259 134.13274016256167 H 0.0 **** 0.06
24094 H 143.94919508863154 117.56011556163241 134.42766125152303 H 0.0 **** 0.06
24095 H 143.22115578872535 118.92885633014629 135.302561244937 H 0.0 **** 0.06
24096 C 171.12232193943032 67.44584474946373 22.517141538955805 C 0.0 **** -0.24
24097 H 171.8321889871617 68.26848283205538 22.41960384340898 H 0.0 **** 0.06
24098 H 171.4862158108583 66.58397467583455 21.956498647066518 H 0.0 **** 0.06
24099 H 170.15440229664893 67.75418099575086 22.123467211230924 H 0.0 **** 0.06
24100 H 171.01975261510543 67.17855526450717 23.568959990537785 H 0.0 **** 0.06
24101 C 62.66642984535537 130.0623911533785 76.49456532027097 C 0.0 **** -0.24
24102 H 61.84156065388606 130.71623676884093 76.77730708677063 H 0.0 **** 0.06
24103 H 62.522323376701934 129.0804973219852 76.94574712864772 H 0.0 **** 0.06
24104 H 63.60578155181645 130.48951690147098 76.84505089699746 H 0.0 **** 0.06
24105 H 62.695225297528054 129.96180927772616 75.40913115760907 H 0.0 **** 0.06
24106 C 134.58888102800142 103.16942946382468 109.39786460592046 C 0.0 **** -0.24
24107 H 134.18167950863867 102.6709499990925 108.51855276498037 H 0.0 **** 0.06
24108 H 135.64581967373292 103.3841563478885 109.23745178421547 H 0.0 **** 0.06
24109 H 134.47721097516046 102.52196870668308 110.26761086383942 H 0.0 **** 0.06
24110 H 134.05020423524928 104.10272515576278 109.56838355057215 H 0.0 **** 0.06
24111 C 42.738209808258375 22.25885799050271 146.28971418182 C 0.0 **** -0.24
24112 H 41.78487478584009 21.915286757179295 145.88718921317562 H 0.0 **** 0.06
24113 H 42.950468948695345 21.732767795580493 147.2199557220648 H 0.0 **** 0.06
24114 H 42.685849563471436 23.33027837943102 146.4817660628867 H 0.0 **** 0.06
24115 H 43.53016885280812 22.056757731693914 145.5683019884895 H 0.0 **** 0.06
24116 C 5.2177615300644575 1.4252114974353276 93.54987682291608 C 0.0 **** -0.24
24117 H 5.663638895711685 0.4425416700944993 93.69947807503092 H 0.0 **** 0.06
24118 H 4.130821600159521 1.3363234410807294 93.56182361210944 H 0.0 **** 0.06
24119 H 5.539229809181471 1.8277309685646017 92.58968601670603 H 0.0 **** 0.06
24120 H 5.536649152913242 2.0943139551655605 94.34974293669924 H 0.0 **** 0.06
24121 C 80.31763310786906 151.0119557977298 123.0225319574242 C 0.0 **** -0.24
24122 H 79.7977611764415 150.18005674516593 123.49775961655067 H 0.0 **** 0.06
24123 H 80.83580694191683 150.6552003581138 122.13237431935406 H 0.0 **** 0.06
24124 H 81.04060069131303 151.43519582518547 123.71929369202621 H 0.0 **** 0.06
24125 H 79.5941698364068 151.77728788299936 122.74027516186996 H 0.0 **** 0.06
24126 C 26.93616613057361 100.59635223218262 124.6421005977532 C 0.0 **** -0.24
24127 H 26.210531806934483 100.10224883237481 125.28850825203091 H 0.0 **** 0.06
24128 H 27.178579800092052 99.94478517647079 123.80306058254092 H 0.0 **** 0.06
24129 H 27.84100618812886 100.81036977157939 125.20963835613779 H 0.0 **** 0.06
24130 H 26.51260973962019 101.52909193221217 124.26745427510104 H 0.0 **** 0.06
24131 C 163.11894036826362 33.99366617852792 106.5077516961951 C 0.0 **** -0.24
24132 H 163.7250888264779 34.8742609107575 106.71996419219519 H 0.0 **** 0.06
24133 H 163.5565657513031 33.12459530902328 106.999278949971 H 0.0 **** 0.06
24134 H 163.08664545729135 33.82613648923592 105.43172753549933 H 0.0 **** 0.06
24135 H 162.10686404552692 34.152350596367455 106.88160726922251 H 0.0 **** 0.06
24136 C 150.2937607126393 128.89963759930865 8.48726500352089 C 0.0 **** -0.24
24137 H 150.62838096903917 127.98311652598264 8.974180415218768 H 0.0 **** 0.06
24138 H 149.5218369911325 129.372689030678 9.095799594408163 H 0.0 **** 0.06
24139 H 149.88721448666118 128.66156381667795 7.504644421394744 H 0.0 **** 0.06
24140 H 151.1369053164944 129.58059138608868 8.37670612195086 H 0.0 **** 0.06
24141 C 26.182049876024166 150.5250273985033 139.33552769783068 C 0.0 **** -0.24
24142 H 25.176893954737523 150.94439123266537 139.29540631369088 H 0.0 **** 0.06
24143 H 26.53157114870413 150.32027316451538 138.32417625761275 H 0.0 **** 0.06
24144 H 26.165125930296426 149.59804623163322 139.9097564983384 H 0.0 **** 0.06
24145 H 26.853626930150398 151.23714309561393 139.81559508155186 H 0.0 **** 0.06
24146 C 111.65505841060462 0.2404745549616223 34.26137351841973 C 0.0 **** -0.24
24147 H 111.53749301778427 -0.31225041679056176 35.19338084948967 H 0.0 **** 0.06
24148 H 111.03833102874762 1.1395494965643138 34.29216010165665 H 0.0 **** 0.06
24149 H 111.34405589410076 -0.38530331153282305 33.42533903443207 H 0.0 **** 0.06
24150 H 112.70064700262469 0.5222458956449714 34.13526402059139 H 0.0 **** 0.06
24151 C 28.862850650169037 60.1988014815272 12.150662065471977 C 0.0 **** -0.24
24152 H 29.31211885344095 61.1008510728669 12.565814802784018 H 0.0 **** 0.06
24153 H 27.780074287295804 60.31922194597432 12.106193350959643 H 0.0 **** 0.06
24154 H 29.108477637803105 59.34660005137712 12.784174721436102 H 0.0 **** 0.06
24155 H 29.251712699678592 60.02834695560965 11.146523250898952 H 0.0 **** 0.06
24156 C 73.88402627118415 1.7372518379867472 116.03092738632029 C 0.0 **** -0.24
24157 H 73.88142980653913 1.8506028101059897 114.9473776791518 H 0.0 **** 0.06
24158 H 73.80665732971886 2.7187677784420856 116.49934035496835 H 0.0 **** 0.06
24159 H 74.81081646002457 1.2569106653701994 116.34344053366206 H 0.0 **** 0.06
24160 H 73.03636959948977 1.1222665174145732 116.33386206324644 H 0.0 **** 0.06
24161 C 22.51882594076227 90.50128152234527 160.81452616152814 C 0.0 **** -0.24
24162 H 21.709236612382654 90.8631371496151 160.18158795111754 H 0.0 **** 0.06
24163 H 23.11478525167638 91.34592827010142 161.16088373545304 H 0.0 **** 0.06
24164 H 23.149601070730114 89.81981700643877 160.24441125062043 H 0.0 **** 0.06
24165 H 22.101181800926497 89.9756727689236 161.6733253227349 H 0.0 **** 0.06
24166 C 161.79754358677388 108.79063798418679 74.19520789153265 C 0.0 **** -0.24
24167 H 162.62858562016913 108.09818660312826 74.3277499490811 H 0.0 **** 0.06
24168 H 161.70574040670863 109.05189110666907 73.14047323471391 H 0.0 **** 0.06
24169 H 161.97883693074868 109.69307043154481 74.77875187210518 H 0.0 **** 0.06
24170 H 160.87463726379548 108.31883647188357 74.5340610558211 H 0.0 **** 0.06
24171 C 151.511754788674 61.80062757120555 56.69661462294367 C 0.0 **** -0.24
24172 H 151.3770787523008 61.364001581815444 55.706821055611016 H 0.0 **** 0.06
24173 H 151.82857305869504 61.02611254134621 57.39524173635819 H 0.0 **** 0.06
24174 H 150.56852896680118 62.23186124444149 57.03398206475458 H 0.0 **** 0.06
24175 H 152.2710146054427 62.58004348154796 56.648308267598196 H 0.0 **** 0.06
24176 C 85.11457836957194 162.10346367798675 93.5294601034276 C 0.0 **** -0.24
24177 H 85.8390932098727 162.392661200674 92.76823922772371 H 0.0 **** 0.06
24178 H 84.61080418579004 161.18699391995415 93.22228435852091 H 0.0 **** 0.06
24179 H 84.37991747775135 162.89850683122026 93.65311654626575 H 0.0 **** 0.06
24180 H 85.63034788629956 161.9349575236846 94.47521995040265 H 0.0 **** 0.06
24181 C 132.70643627832203 50.983444571878096 149.69092634958844 C 0.0 **** -0.24
24182 H 132.6755641030741 49.89387348326346 149.67909668273683 H 0.0 **** 0.06
24183 H 133.73415070622343 51.31701524756829 149.8346616781722 H 0.0 **** 0.06
24184 H 132.08633758328097 51.35505181622449 150.50644632958642 H 0.0 **** 0.06
24185 H 132.3287049280673 51.36795083928759 148.74360795655122 H 0.0 **** 0.06
24186 C 87.25416777982662 131.56009758288667 61.393555095539284 C 0.0 **** -0.24
24187 H 88.05910417279006 130.98068596162818 60.94130100384439 H 0.0 **** 0.06
24188 H 87.20990012509554 132.5445502543344 60.928323452234395 H 0.0 **** 0.06
24189 H 87.44326038307594 131.67012022340478 62.46119416383084 H 0.0 **** 0.06
24190 H 86.30641349501394 131.04241048689593 61.243102136653164 H 0.0 **** 0.06
24191 C 5.489771882567766 117.42914274869284 30.934020104839604 C 0.0 **** -0.24
24192 H 4.436198271453719 117.15248669800778 30.888234998568365 H 0.0 **** 0.06
24193 H 6.027164285978188 116.71093080169928 31.553812979433985 H 0.0 **** 0.06
24194 H 5.585151969749006 118.42496337103728 31.366722206614952 H 0.0 **** 0.06
24195 H 5.910005915730807 117.42844793259272 29.928579881358843 H 0.0 **** 0.06
24196 C 97.86617805589447 29.000090972953856 15.44668255327504 C 0.0 **** -0.24
24197 H 98.3791904609412 28.03783366583754 15.437662414420977 H 0.0 **** 0.06
24198 H 98.04230065505158 29.495923401234066 16.401074091275817 H 0.0 **** 0.06
24199 H 96.79574096884448 28.84223676278387 15.311088656010256 H 0.0 **** 0.06
24200 H 98.24688582750429 29.622755398203594 14.637104397585858 H 0.0 **** 0.06
24201 C 97.47699488059766 30.410195310477604 86.79375268980492 C 0.0 **** -0.24
24202 H 98.20301141928391 30.386066571811284 85.98154030740972 H 0.0 **** 0.06
24203 H 97.9624659112429 30.11627914440527 87.72477383465558 H 0.0 **** 0.06
24204 H 96.66308184568751 29.71925208847381 86.5751612726635 H 0.0 **** 0.06
24205 H 97.07931956192326 31.41988286909003 86.89476037243205 H 0.0 **** 0.06
24206 C 35.21378741274964 50.266145762613405 60.57677404868021 C 0.0 **** -0.24
24207 H 34.49778656726545 51.026042240765975 60.262767148325224 H 0.0 **** 0.06
24208 H 36.13537534627639 50.37543616871403 60.004346327142216 H 0.0 **** 0.06
24209 H 34.79282058924815 49.27560606755242 60.40335766857319 H 0.0 **** 0.06
24210 H 35.4292599479233 50.388493007009686 61.63862570800018 H 0.0 **** 0.06
24211 C 122.0318598698073 57.03203614293746 52.69906361768096 C 0.0 **** -0.24
24212 H 122.97861959072668 57.488484402747005 52.98811068309101 H 0.0 **** 0.06
24213 H 121.51026052671801 56.68025796171146 53.58931550831346 H 0.0 **** 0.06
24214 H 122.2240892125057 56.18965070596009 52.034470626075745 H 0.0 **** 0.06
24215 H 121.41592920432544 57.76905634050476 52.1837347619265 H 0.0 **** 0.06
24216 C 32.878134962986394 121.6916921230854 9.826773214927982 C 0.0 **** -0.24
24217 H 32.7247089722664 121.14499685564735 8.896420093091535 H 0.0 **** 0.06
24218 H 32.43231559862062 122.68208522346802 9.743378108407512 H 0.0 **** 0.06
24219 H 33.94696700520518 121.78831156483054 10.018658458554881 H 0.0 **** 0.06
24220 H 32.408572245729175 121.14918320744911 10.647542443287534 H 0.0 **** 0.06
24221 C 171.69576982990523 164.20296821406936 166.5999332973393 C 0.0 **** -0.24
24222 H 172.76747111829692 164.37924267526193 166.69482198090986 H 0.0 **** 0.06
24223 H 171.3000111194529 163.8483174091036 167.5522379060228 H 0.0 **** 0.06
24224 H 171.51802013407183 163.45129282297728 165.83035460851266 H 0.0 **** 0.06
24225 H 171.197693135929 165.131300464103 166.322145615814 H 0.0 **** 0.06
24226 C 82.60655404706199 29.08422705102437 46.390489927175 C 0.0 **** -0.24
24227 H 82.80234161350549 30.15550507633212 46.42565782877122 H 0.0 **** 0.06
24228 H 81.59152102745828 28.88917129927627 46.739380257522015 H 0.0 **** 0.06
24229 H 83.31850855986329 28.56250171394511 47.030532618666314 H 0.0 **** 0.06
24230 H 82.71241949008075 28.729153382955047 45.364765588307534 H 0.0 **** 0.06
24231 C 71.84654643104847 135.02467528920863 54.84610622596523 C 0.0 **** -0.24
24232 H 72.59726998204081 135.47579551392474 54.19746466833956 H 0.0 **** 0.06
24233 H 71.3707552814052 135.80245184323542 55.44484543999961 H 0.0 **** 0.06
24234 H 72.32508175395415 134.30063421192324 55.5050976002326 H 0.0 **** 0.06
24235 H 71.09507892131228 134.52264267387605 54.23844187688782 H 0.0 **** 0.06
24236 C 80.21295633816477 108.52954404073134 118.50150852923448 C 0.0 **** -0.24
24237 H 80.29419709351839 108.61055719118286 117.41746978465588 H 0.0 **** 0.06
24238 H 81.17352380991805 108.22242226479511 118.91535939259535 H 0.0 **** 0.06
24239 H 79.45461232393829 107.78806575140032 118.75365828118237 H 0.0 **** 0.06
24240 H 79.92827463308144 109.49552879281629 118.91755894354108 H 0.0 **** 0.06
24241 C 76.4611669369818 139.15407011347264 96.05288865866876 C 0.0 **** -0.24
24242 H 77.19818211411545 139.0499047427661 96.84933350710787 H 0.0 **** 0.06
24243 H 75.47179146853823 138.9095132621723 96.4394883414738 H 0.0 **** 0.06
24244 H 76.71087430108528 138.47676708105445 95.23664421088392 H 0.0 **** 0.06
24245 H 76.46562385396349 140.1812633498651 95.68726399284051 H 0.0 **** 0.06
24246 C 172.3846693113431 34.31705905963844 41.83059568678917 C 0.0 **** -0.24
24247 H 171.90584413057218 34.573590256488046 42.77615446653198 H 0.0 **** 0.06
24248 H 173.46251557736338 34.45790105867701 41.92042990428601 H 0.0 **** 0.06
24249 H 171.9971986213585 34.9616758684906 41.04152672622769 H 0.0 **** 0.06
24250 H 172.17339869294557 33.275802885317034 41.587167072222826 H 0.0 **** 0.06
24251 C 95.42287101306266 126.49052253213253 4.076329345347688 C 0.0 **** -0.24
24252 H 96.03533594776366 126.53069858748836 3.176117289434103 H 0.0 **** 0.06
24253 H 96.0166150385281 126.80912469751189 4.933443628105124 H 0.0 **** 0.06
24254 H 95.07439736013575 125.47027455827205 4.2343272812280475 H 0.0 **** 0.06
24255 H 94.56516694722725 127.15400317623016 3.9624066697751346 H 0.0 **** 0.06
24256 C 142.9457750607499 62.695918961917855 64.78634833451395 C 0.0 **** -0.24
24257 H 143.25427571574338 62.17518627943389 65.69265236388715 H 0.0 **** 0.06
24258 H 143.68487293015892 63.45788877228732 64.53530932896771 H 0.0 **** 0.06
24259 H 141.9776043173185 63.16849059100376 64.9506792210012 H 0.0 **** 0.06
24260 H 142.86729598599052 61.98189264539688 63.966522963314304 H 0.0 **** 0.06
24261 C 7.747932187093056 73.71665974250357 37.74353146707182 C 0.0 **** -0.24
24262 H 8.126753541265543 73.99585710370604 38.7271586447296 H 0.0 **** 0.06
24263 H 7.463832230236733 72.66423151640561 37.74979529651233 H 0.0 **** 0.06
24264 H 8.524509843040732 73.8789374451506 36.995785996693314 H 0.0 **** 0.06
24265 H 6.878217709564353 74.327004776985 37.5036485668262 H 0.0 **** 0.06
24266 C 42.26603998666428 77.12880554783675 41.62586077509462 C 0.0 **** -0.24
24267 H 41.6337865378739 77.98438988466945 41.862863305706526 H 0.0 **** 0.06
24268 H 42.51310773567923 77.14452815340289 40.563675503174466 H 0.0 **** 0.06
24269 H 41.7340460711502 76.2072380428912 41.86150242066009 H 0.0 **** 0.06
24270 H 43.18255511964577 77.18129534115648 42.21379276646593 H 0.0 **** 0.06
24271 C 121.59517141125744 85.15372187490868 138.12461389505893 C 0.0 **** -0.24
24272 H 121.85138102113962 84.79892842694045 139.12299380029367 H 0.0 **** 0.06
24273 H 121.53493987906597 86.24326143795952 138.13093548042627 H 0.0 **** 0.06
24274 H 120.63211522046734 84.7387243913854 137.82765760039035 H 0.0 **** 0.06
24275 H 122.36104775219965 84.83646709140675 137.41869538267747 H 0.0 **** 0.06
24276 C 108.10464323173784 132.49688020853102 28.16632561704992 C 0.0 **** -0.24
24277 H 107.43063170015057 132.06935312318333 28.908139077975648 H 0.0 **** 0.06
24278 H 109.0498996714519 132.75825458884046 28.641756868416223 H 0.0 **** 0.06
24279 H 107.65317743367501 133.3921845701125 27.738205383456858 H 0.0 **** 0.06
24280 H 108.2840749486115 131.76729125155785 27.376112088271555 H 0.0 **** 0.06
24281 C 131.02467576139918 117.7517531522142 123.59491409813518 C 0.0 **** -0.24
24282 H 131.38566201659012 116.95456826698882 124.24391898037854 H 0.0 **** 0.06
24283 H 131.86817538635876 118.20174651564446 123.06930340510652 H 0.0 **** 0.06
24284 H 130.52288829672852 118.50958903574445 124.19527420278794 H 0.0 **** 0.06
24285 H 130.32364678102886 117.33928351055744 122.86946227930216 H 0.0 **** 0.06
24286 C 16.60111042783484 35.95857668182367 42.99823550992632 C 0.0 **** -0.24
24287 H 17.02040170497287 35.07710008237096 43.48422011797747 H 0.0 **** 0.06
24288 H 17.340275109988568 36.38684945134476 42.321800611775046 H 0.0 **** 0.06
24289 H 16.330074517694584 36.69494883637782 43.754975080452354 H 0.0 **** 0.06
24290 H 15.713249346681522 35.67383945018493 42.434656266560125 H 0.0 **** 0.06
24291 C 111.9898440596898 63.7342482266036 12.04738131669366 C 0.0 **** -0.24
24292 H 112.92949203149175 63.763998073739174 12.599182754212833 H 0.0 **** 0.06
24293 H 111.37263467928693 64.58551983383342 12.33469894259445 H 0.0 **** 0.06
24294 H 111.46285230087128 62.80858918432796 12.278790497505831 H 0.0 **** 0.06
24295 H 112.19508747702858 63.77825711987754 10.977915312532012 H 0.0 **** 0.06
24296 C 143.3361724779217 6.575750919552156 124.09549057314669 C 0.0 **** -0.24
24297 H 142.65545768063586 7.377209560796572 124.38408652098994 H 0.0 **** 0.06
24298 H 144.27695276702738 7.005758738798576 123.74913965403394 H 0.0 **** 0.06
24299 H 142.88807890047397 5.988887372568392 123.29411707198648 H 0.0 **** 0.06
24300 H 143.52520047347812 5.933153099657908 124.95560896846695 H 0.0 **** 0.06
24301 C 82.38328017255346 97.73045599762779 33.46307215685901 C 0.0 **** -0.24
24302 H 82.40929238877617 97.63268002120986 34.54798200781528 H 0.0 **** 0.06
24303 H 82.5922387002501 96.76226718651031 33.00661845594327 H 0.0 **** 0.06
24304 H 83.13536637620399 98.45193054726818 33.14562772270722 H 0.0 **** 0.06
24305 H 81.3961505013169 98.07259280457657 33.15273589758712 H 0.0 **** 0.06
24306 C 121.0206810760283 39.93025647354557 100.1501458901977 C 0.0 **** -0.24
24307 H 120.34111488917011 40.66826029853456 100.57544027714363 H 0.0 **** 0.06
24308 H 120.93512263063272 39.941514772977655 99.06296870849741 H 0.0 **** 0.06
24309 H 120.7597615173178 38.939893650737986 100.52494141242738 H 0.0 **** 0.06
24310 H 122.04409376492336 40.16992378654288 100.43708875159822 H 0.0 **** 0.06
24311 C 144.07592058181564 5.250033806218255 167.46268708767877 C 0.0 **** -0.24
24312 H 143.61169330781826 4.2705053129591874 167.35003211874357 H 0.0 **** 0.06
24313 H 144.33216285102276 5.646986063366143 166.4804880316471 H 0.0 **** 0.06
24314 H 144.980940286166 5.155686177676813 168.0644662004305 H 0.0 **** 0.06
24315 H 143.379925129046 5.926463689157373 167.9588726678972 H 0.0 **** 0.06
24316 C 6.59482416066399 163.35070447340453 3.9243111495826213 C 0.0 **** -0.24
24317 H 7.63977902594911 163.64830370428695 4.014827604999965 H 0.0 **** 0.06
24318 H 5.982296544753694 164.231528862562 3.728634031475366 H 0.0 **** 0.06
24319 H 6.2689790255579965 162.87954985965965 4.851674327963281 H 0.0 **** 0.06
24320 H 6.488469437783436 162.6438815357122 3.1012429873761107 H 0.0 **** 0.06
24321 C 149.7648241693956 114.32034372773063 107.1467162735841 C 0.0 **** -0.24
24322 H 149.93330328668495 115.395982313941 107.0910780274479 H 0.0 **** 0.06
24323 H 150.54917332464777 113.80229564775817 106.59427189338243 H 0.0 **** 0.06
24324 H 148.79462749255558 114.08164450810423 106.71099242050349 H 0.0 **** 0.06
24325 H 149.78239980634118 114.00312233701015 108.18905012202293 H 0.0 **** 0.06
24326 C 53.11257317111361 20.860055002030123 98.27555187137148 C 0.0 **** -0.24
24327 H 53.027487600444374 20.20841861593263 99.14462069741273 H 0.0 **** 0.06
24328 H 54.11446172190179 21.288649852640674 98.23942722950909 H 0.0 **** 0.06
24329 H 52.376293079348926 21.661330811506666 98.34888623226459 H 0.0 **** 0.06
24330 H 52.9312453662385 20.282410524534754 97.36933872830053 H 0.0 **** 0.06
24331 C 139.56373382527966 63.30246331005587 77.11592615601688 C 0.0 **** -0.24
24332 H 138.71326614416037 63.20748724319476 77.79109165931047 H 0.0 **** 0.06
24333 H 140.20611811178563 62.42781525225743 77.21697753994458 H 0.0 **** 0.06
24334 H 140.12846276386267 64.19962631823388 77.36851858328943 H 0.0 **** 0.06
24335 H 139.20527699335415 63.37439054337894 76.08944803351429 H 0.0 **** 0.06
24336 C 165.47660215078247 12.46456395719943 92.58661256651726 C 0.0 **** -0.24
24337 H 164.7667935974302 11.721273702937928 92.2231189491763 H 0.0 **** 0.06
24338 H 164.9570823005874 13.187406276925245 93.21431013995914 H 0.0 **** 0.06
24339 H 165.9293315999359 12.978223040023707 91.73830331459499 H 0.0 **** 0.06
24340 H 166.2548975401014 11.96939174536223 93.16802032098599 H 0.0 **** 0.06
24341 C 76.2954152794045 74.3808038517872 95.61949825342089 C 0.0 **** -0.24
24342 H 75.50087543153057 74.98429101242814 96.06013405011782 H 0.0 **** 0.06
24343 H 76.94707509216346 74.00604878982882 96.40856371742206 H 0.0 **** 0.06
24344 H 76.87550132095868 74.99370641091754 94.92951939453354 H 0.0 **** 0.06
24345 H 75.85670287911194 73.54241956715785 95.08018354615393 H 0.0 **** 0.06
24346 C 79.37835483403137 47.984970174908085 159.39603428355775 C 0.0 **** -0.24
24347 H 80.1014570733071 47.43354961199981 159.99715133074736 H 0.0 **** 0.06
24348 H 79.90629281736685 48.60764340997855 158.6727219336583 H 0.0 **** 0.06
24349 H 78.77296774358386 48.61665285808601 160.04611323566857 H 0.0 **** 0.06
24350 H 78.73303160590964 47.28323088719071 158.86882933985805 H 0.0 **** 0.06
24351 C 61.770925978023854 147.44875871256772 116.49959238351263 C 0.0 **** -0.24
24352 H 61.22866147197328 147.9269073477506 117.31472565218937 H 0.0 **** 0.06
24353 H 61.40502156678582 147.83060467287135 115.54692098877734 H 0.0 **** 0.06
24354 H 61.61495311142937 146.37055838439204 116.54285575532657 H 0.0 **** 0.06
24355 H 62.8347623100272 147.66607947112848 116.5942186315313 H 0.0 **** 0.06
24356 C 91.26912897757217 39.3831637174539 118.82110013305655 C 0.0 **** -0.24
24357 H 90.57583744405515 39.62278226402776 119.62622244435164 H 0.0 **** 0.06
24358 H 92.12317182645663 40.060576401336334 118.86351602786539 H 0.0 **** 0.06
24359 H 90.7643422116751 39.495352936732445 117.861013618897 H 0.0 **** 0.06
24360 H 91.6142238044938 38.355420839775206 118.93200689608668 H 0.0 **** 0.06
24361 C 138.48543046926937 164.56589299324924 161.9463668081218 C 0.0 **** -0.24
24362 H 137.88937832573606 163.67246646159907 162.13501750916714 H 0.0 **** 0.06
24363 H 138.88431036693655 164.9413870308819 162.88904292309581 H 0.0 **** 0.06
24364 H 137.85825753468168 165.32956624392676 161.4871060505095 H 0.0 **** 0.06
24365 H 139.30766928626056 164.3191324964862 161.27502430391223 H 0.0 **** 0.06
24366 C 44.363083399567415 4.66493539080011 11.645617346973694 C 0.0 **** -0.24
24367 H 45.14869000794724 5.39353360276624 11.844094218467603 H 0.0 **** 0.06
24368 H 44.80101758556363 3.7698022500047728 11.20424280391029 H 0.0 **** 0.06
24369 H 43.636385027561175 5.093224459142675 10.955594070149886 H 0.0 **** 0.06
24370 H 43.86726794604243 4.403498832499679 12.58073935073989 H 0.0 **** 0.06
24371 C 4.922390714870097 43.197178280908204 108.04389240655891 C 0.0 **** -0.24
24372 H 4.284049039017674 43.4498989186594 107.19671686646953 H 0.0 **** 0.06
24373 H 4.3041512018667945 42.85879848816114 108.87572064663613 H 0.0 **** 0.06
24374 H 5.489231658971185 44.07747496717626 108.34589945072713 H 0.0 **** 0.06
24375 H 5.6105829755889545 42.4023026695816 107.75563666648432 H 0.0 **** 0.06
24376 C 85.10164983347835 65.15581278863453 109.86403831427745 C 0.0 **** -0.24
24377 H 84.45037499236838 64.43183830879508 110.35417730574355 H 0.0 **** 0.06
24378 H 84.57146271636788 65.61598865773249 109.03001973834708 H 0.0 **** 0.06
24379 H 85.99325063296004 64.64955071336743 109.49286458642806 H 0.0 **** 0.06
24380 H 85.39235183687771 65.92545197830844 110.57943125731461 H 0.0 **** 0.06
24381 C 69.46134530799468 164.45376338970536 151.6687036385253 C 0.0 **** -0.24
24382 H 69.43456629337369 163.3742876276316 151.51395481107784 H 0.0 **** 0.06
24383 H 69.82680455403484 164.66754084398963 152.6725292666666 H 0.0 **** 0.06
24384 H 68.45769934109846 164.8616227581983 151.5524080328727 H 0.0 **** 0.06
24385 H 70.1261020322208 164.90888750475668 150.93466296144697 H 0.0 **** 0.06
24386 C 62.95507335704825 34.11835323171434 132.74890763919927 C 0.0 **** -0.24
24387 H 62.98998200033914 34.83837770370481 133.56601736841642 H 0.0 **** 0.06
24388 H 63.57923538327938 33.258863169070125 132.99554058696316 H 0.0 **** 0.06
24389 H 63.32537068308545 34.58638806553739 131.83675333621056 H 0.0 **** 0.06
24390 H 61.926529052928245 33.7901942880695 132.59771069163065 H 0.0 **** 0.06
24391 C 156.48781898056004 57.44024620195765 85.4607085389804 C 0.0 **** -0.24
24392 H 155.7908411990528 57.5128760354342 86.29484523584185 H 0.0 **** 0.06
24393 H 157.18618200727698 56.62181394772661 85.6412437708471 H 0.0 **** 0.06
24394 H 157.04043624801082 58.3752225035944 85.36630161850505 H 0.0 **** 0.06
24395 H 155.9349753826761 57.250291563429315 84.5402258385079 H 0.0 **** 0.06
24396 C 49.350570855885096 51.4554055741808 148.45729839177403 C 0.0 **** -0.24
24397 H 49.78926646574 50.71214122881045 147.7918583503395 H 0.0 **** 0.06
24398 H 49.125278834791956 50.99453510726997 149.4181152595444 H 0.0 **** 0.06
24399 H 48.432515909604334 51.841583305135615 148.01365542768235 H 0.0 **** 0.06
24400 H 50.05550753109385 52.27419893180776 148.60192864905716 H 0.0 **** 0.06
24401 C 136.2302245798803 110.25976872848543 76.02502346124123 C 0.0 **** -0.24
24402 H 136.02792624882522 110.80015130408404 76.94936550893526 H 0.0 **** 0.06
24403 H 135.4764745065871 109.48409591695946 75.88452526964556 H 0.0 **** 0.06
24404 H 137.2182029414013 109.80218048154276 76.08138793730603 H 0.0 **** 0.06
24405 H 136.19883031095316 110.95394820773203 75.18495831565248 H 0.0 **** 0.06
24406 C 116.34975374957887 91.80270076012087 155.3471931875929 C 0.0 **** -0.24
24407 H 117.4391823517224 91.77840428291714 155.3080241751714 H 0.0 **** 0.06
24408 H 115.96192788708339 90.78364358484276 155.30067608054858 H 0.0 **** 0.06
24409 H 115.96774043827938 92.375144575765 154.50197126950945 H 0.0 **** 0.06
24410 H 116.03051272097377 92.2706325186652 156.2782008177369 H 0.0 **** 0.06
24411 C 126.25969569249543 43.60008267266164 149.90184698477702 C 0.0 **** -0.24
24412 H 127.08110589652901 44.14832993579205 149.43996235106994 H 0.0 **** 0.06
24413 H 125.76255064414994 42.988237020869974 149.1487613990066 H 0.0 **** 0.06
24414 H 125.54564192671222 44.30550119409207 150.32666472238046 H 0.0 **** 0.06
24415 H 126.64948430259065 42.958262539892246 150.69199946665117 H 0.0 **** 0.06
24416 C 157.96478374512085 136.68489824696582 50.39086504224025 C 0.0 **** -0.24
24417 H 158.08225877178745 137.2410106875262 51.32129385463031 H 0.0 **** 0.06
24418 H 158.04838172990378 137.3698288195829 49.546303789898616 H 0.0 **** 0.06
24419 H 156.9866479253057 136.2051222030859 50.37598470956641 H 0.0 **** 0.06
24420 H 158.74438652812637 135.9258044652994 50.32155893811989 H 0.0 **** 0.06
24421 C 11.661998961901872 152.60581501686005 143.96068643320837 C 0.0 **** -0.24
24422 H 11.708804707011211 151.5637827443685 143.64298189400412 H 0.0 **** 0.06
24423 H 11.86996820720509 152.66893080969967 145.02862995444232 H 0.0 **** 0.06
24424 H 10.666661890025523 153.0014140297776 143.759180326913 H 0.0 **** 0.06
24425 H 12.40165417063065 153.18692394200588 143.41013691846732 H 0.0 **** 0.06
24426 C 51.14180845900715 9.03000400847128 110.17635499519213 C 0.0 **** -0.24
24427 H 51.52048539019755 8.093695171965095 109.76431036371724 H 0.0 **** 0.06
24428 H 51.979685395558576 9.647615895779126 110.50157032823023 H 0.0 **** 0.06
24429 H 50.49478007418459 8.817139750738676 111.0277434388833 H 0.0 **** 0.06
24430 H 50.57419430239631 9.559507011679159 109.41146290454958 H 0.0 **** 0.06
24431 C 81.00945987335004 101.59920277804821 82.18228127513424 C 0.0 **** -0.24
24432 H 81.08097237105514 101.09715360968912 81.21671987438816 H 0.0 **** 0.06
24433 H 80.42443095035725 100.98572604753997 82.86768528261422 H 0.0 **** 0.06
24434 H 80.52372686407078 102.56662602862002 82.05400466595444 H 0.0 **** 0.06
24435 H 82.00986675346614 101.74629110145045 82.58880959334562 H 0.0 **** 0.06
24436 C 148.55139372710676 49.871342449335145 36.46152294441873 C 0.0 **** -0.24
24437 H 147.46774306880098 49.98867149824616 36.48869553402557 H 0.0 **** 0.06
24438 H 148.82445546164038 48.92149437699658 36.92081925742832 H 0.0 **** 0.06
24439 H 149.018818580753 50.688655312201774 37.011255508377644 H 0.0 **** 0.06
24440 H 148.89260550051802 49.887011150469164 35.42672673986462 H 0.0 **** 0.06
24441 C 149.51924409789567 127.9017343774008 138.99066588773348 C 0.0 **** -0.24
24442 H 149.47073380907653 128.46249181500832 139.92419951767067 H 0.0 **** 0.06
24443 H 149.75633970461604 128.58172454485097 138.17132207627552 H 0.0 **** 0.06
24444 H 148.5577176385426 127.42601611794035 138.80182165052653 H 0.0 **** 0.06
24445 H 150.29468466675343 127.13888429946081 139.06525735908053 H 0.0 **** 0.06
24446 C 84.05621704127068 43.206582463093696 153.7037424856036 C 0.0 **** -0.24
24447 H 84.10853204375545 42.32692267584699 154.3460049011304 H 0.0 **** 0.06
24448 H 85.03845191961601 43.6761441602643 153.65164989390271 H 0.0 **** 0.06
24449 H 83.33568810381536 43.91321852614021 154.11342975717275 H 0.0 **** 0.06
24450 H 83.7427009636734 42.90637808474017 152.7033349602307 H 0.0 **** 0.06
24451 C 82.16980198605714 127.84475390651323 70.56923111427264 C 0.0 **** -0.24
24452 H 82.7203844475869 128.49095624383042 69.88543020545596 H 0.0 **** 0.06
24453 H 82.73423645099655 126.9275792281002 70.73704805338942 H 0.0 **** 0.06
24454 H 81.19972838418178 127.60078763736504 70.13654665369836 H 0.0 **** 0.06
24455 H 82.02484039533135 128.36041779139572 71.51858778213663 H 0.0 **** 0.06
24456 C 97.22199003637354 149.05564219800493 58.15499686116061 C 0.0 **** -0.24
24457 H 96.1339796577787 149.10899159300425 58.19190810045444 H 0.0 **** 0.06
24458 H 97.64504888906552 149.95670869702613 58.60028169872618 H 0.0 **** 0.06
24459 H 97.54626817313218 148.975632997838 57.11722019197896 H 0.0 **** 0.06
24460 H 97.56215102193116 148.18074076651337 58.71127938308453 H 0.0 **** 0.06
24461 C 17.316859411247037 38.11404402551521 87.2632428334984 C 0.0 **** -0.24
24462 H 17.909900297925873 37.23241735249265 87.0208132748604 H 0.0 **** 0.06
24463 H 17.62471668096859 38.50310506575609 88.23514337727904 H 0.0 **** 0.06
24464 H 16.260999484166007 37.84379039782161 87.29814274538207 H 0.0 **** 0.06
24465 H 17.470673987484844 38.877593526821286 86.50090930262269 H 0.0 **** 0.06
24466 C 87.69714061889925 115.18952267313003 114.43841885750552 C 0.0 **** -0.24
24467 H 87.13451563075053 114.33170991454057 114.80885727499953 H 0.0 **** 0.06
24468 H 88.74932963556097 115.07124662563194 114.69494215294193 H 0.0 **** 0.06
24469 H 87.31099083283564 116.10055312422057 114.89384942335738 H 0.0 **** 0.06
24470 H 87.59100181258339 115.25171207890531 113.35486625250024 H 0.0 **** 0.06
24471 C 12.189818204898131 156.9675385815696 23.76601734370132 C 0.0 **** -0.24
24472 H 12.163512873721174 156.19958132796927 24.539136915912223 H 0.0 **** 0.06
24473 H 12.587340122933568 157.8914735027302 24.18610039794646 H 0.0 **** 0.06
24474 H 11.180589378951879 157.14190101709977 23.39368135516912 H 0.0 **** 0.06
24475 H 12.827464667909453 156.63557496574504 22.946644209685417 H 0.0 **** 0.06
24476 C 149.7839560151872 121.8307154325783 140.14944970807613 C 0.0 **** -0.24
24477 H 149.26213377365173 121.48179890086149 141.04092601501287 H 0.0 **** 0.06
24478 H 150.54382245442122 122.5593207809494 140.43501489077212 H 0.0 **** 0.06
24479 H 149.0703483755969 122.29707169368487 139.47024490994315 H 0.0 **** 0.06
24480 H 150.25947669977546 120.98528013503483 139.65376394185603 H 0.0 **** 0.06
24481 C 132.4531952470365 92.8394920627751 116.26876137936898 C 0.0 **** -0.24
24482 H 133.46082317837897 92.63632801473659 116.63049676350789 H 0.0 **** 0.06
24483 H 132.0618785732729 91.95470350789537 115.76676271836811 H 0.0 **** 0.06
24484 H 132.48067020163643 93.67385597519228 115.56817793445717 H 0.0 **** 0.06
24485 H 131.81012104771264 93.0936876794101 117.11187191340392 H 0.0 **** 0.06
24486 C 156.95861844174343 42.16238641975177 86.96695624741325 C 0.0 **** -0.24
24487 H 156.13608872509894 41.51164556728277 87.265694302578 H 0.0 **** 0.06
24488 H 157.90334111833468 41.63142884804371 87.08717408225472 H 0.0 **** 0.06
24489 H 156.9608439176944 43.05509090741738 87.59242641536858 H 0.0 **** 0.06
24490 H 156.8317051680765 42.44986858581771 85.92323060790719 H 0.0 **** 0.06
24491 C 130.84498259846163 36.14311685182946 28.705695517747017 C 0.0 **** -0.24
24492 H 131.75024967069015 36.69430326299414 28.45295013646046 H 0.0 **** 0.06
24493 H 130.59092973555786 36.321243031565416 29.75140840330306 H 0.0 **** 0.06
24494 H 131.01231960431682 35.077825518865495 28.548088805322323 H 0.0 **** 0.06
24495 H 130.02529976452993 36.47994335546241 28.07030652687206 H 0.0 **** 0.06
24496 C 133.95868702923192 49.04356498389217 33.636135171876106 C 0.0 **** -0.24
24497 H 134.7582102048395 48.51693278071264 33.11630985236988 H 0.0 **** 0.06
24498 H 134.16762943605136 49.05779342817034 34.705875705774474 H 0.0 **** 0.06
24499 H 133.01166149571807 48.53355555573992 33.45764363901981 H 0.0 **** 0.06
24500 H 133.89581382231748 50.06643250876556 33.263851421108114 H 0.0 **** 0.06
24501 C 59.465988682626545 66.10634769965968 23.32666330012612 C 0.0 **** -0.24
24502 H 59.607685634625994 65.0255802540871 23.32220360245661 H 0.0 **** 0.06
24503 H 59.434058411969346 66.47227520493097 22.29993172294143 H 0.0 **** 0.06
24504 H 60.292360412002466 66.57900255748297 23.856169008545244 H 0.0 **** 0.06
24505 H 58.528008858384155 66.34667724191024 23.826876990858736 H 0.0 **** 0.06
24506 C 78.48077278859273 164.09910001388658 34.64458707609185 C 0.0 **** -0.24
24507 H 78.97468388127695 163.23418148328818 34.201455085338466 H 0.0 **** 0.06
24508 H 79.12982048442655 164.9711310731132 34.56132772154575 H 0.0 **** 0.06
24509 H 78.27228958490123 163.89887009101255 35.695602261154875 H 0.0 **** 0.06
24510 H 77.54433827607394 164.29154027341593 34.11912405188423 H 0.0 **** 0.06
24511 C 72.24233590229176 88.96856432455097 72.87736701213754 C 0.0 **** -0.24
24512 H 71.22180722695742 88.58412377210074 72.85150350778883 H 0.0 **** 0.06
24513 H 72.92186518746146 88.21955163543 72.47118710415828 H 0.0 **** 0.06
24514 H 72.52002365866093 89.19198812601456 73.90698658905978 H 0.0 **** 0.06
24515 H 72.30240546187525 89.8779247720968 72.27958661481114 H 0.0 **** 0.06
24516 C 85.03089487420081 118.54064300585716 171.22128676989374 C 0.0 **** -0.24
24517 H 85.8705811740505 118.16513130971256 170.6360892980164 H 0.0 **** 0.06
24518 H 84.16107313048786 118.65849993540058 170.57354984988032 H 0.0 **** 0.06
24519 H 85.29355583363356 119.50479843491195 171.656196764855 H 0.0 **** 0.06
24520 H 84.79768388300609 117.83407940179436 172.0180757651134 H 0.0 **** 0.06
24521 C 3.3661004609479903 18.295927525852527 157.5595487437387 C 0.0 **** -0.24
24522 H 3.9567516911998553 18.529204382525847 156.67358304423053 H 0.0 **** 0.06
24523 H 2.480998701499118 17.730201082991357 157.26781142160218 H 0.0 **** 0.06
24524 H 3.0608356641630508 19.222663137759604 158.04645810134141 H 0.0 **** 0.06
24525 H 3.9662327955125534 17.703569591086705 158.25067207556003 H 0.0 **** 0.06
24526 C 160.4331601491293 8.113118247807392 75.91287482090158 C 0.0 **** -0.24
24527 H 160.75169667882815 7.531013399071014 75.0483584253907 H 0.0 **** 0.06
24528 H 160.89067508186076 9.102679047889922 75.87243038384867 H 0.0 **** 0.06
24529 H 160.74301072117052 7.605708903581274 76.82585485066087 H 0.0 **** 0.06
24530 H 159.34848018727433 8.213853912314278 75.90288210978089 H 0.0 **** 0.06
24531 C 159.07329228708318 158.67306158297748 116.86953009987533 C 0.0 **** -0.24
24532 H 158.4560257407758 159.45810804271548 116.43371565762402 H 0.0 **** 0.06
24533 H 159.8894289374904 159.12338408110793 117.43366995239796 H 0.0 **** 0.06
24534 H 159.481716013335 158.04908596406216 116.07390223339084 H 0.0 **** 0.06
24535 H 158.46491805534222 158.06056348950796 117.53521626714257 H 0.0 **** 0.06
24536 C 104.60808174309594 42.14630607843044 16.277369096961735 C 0.0 **** -0.24
24537 H 104.84819693569847 42.88504919764122 15.513135189771361 H 0.0 **** 0.06
24538 H 104.73427195250994 42.590883464811455 17.264282542379163 H 0.0 **** 0.06
24539 H 105.27475963298579 41.2893688310681 16.175382034296916 H 0.0 **** 0.06
24540 H 103.57581896103946 41.81959340610952 16.154358751794945 H 0.0 **** 0.06
24541 C 97.37923454975319 17.396198864540906 145.65369573770107 C 0.0 **** -0.24
24542 H 96.59542336741262 16.881871583204884 146.2109871347458 H 0.0 **** 0.06
24543 H 98.01822402500977 16.660494824101534 145.16384857791164 H 0.0 **** 0.06
24544 H 97.97622153017463 17.998530936595444 146.33817933456947 H 0.0 **** 0.06
24545 H 96.92556661421605 18.042306450539627 144.9022247980589 H 0.0 **** 0.06
24546 C 169.75580749896397 114.29541838327185 18.44463004334571 C 0.0 **** -0.24
24547 H 170.25837236098636 114.32539056568663 17.477762204204083 H 0.0 **** 0.06
24548 H 170.30533436010114 113.63976521212089 19.119633981106404 H 0.0 **** 0.06
24549 H 168.74215419955502 113.91635020866039 18.31438990402836 H 0.0 **** 0.06
24550 H 169.71660405165738 115.3009076859326 18.86476759671487 H 0.0 **** 0.06
24551 C 100.91890138003387 135.20534212391772 152.82987604239779 C 0.0 **** -0.24
24552 H 100.71760564062143 135.40303532876666 153.88237240157673 H 0.0 **** 0.06
24553 H 100.91469341966601 134.12894483498815 152.65607910493895 H 0.0 **** 0.06
24554 H 101.89308614152912 135.61284079207667 152.56293967941704 H 0.0 **** 0.06
24555 H 100.14777055970285 135.6747512819228 152.2189918576764 H 0.0 **** 0.06
24556 C 87.70361201762495 87.2065617850822 87.54665985875675 C 0.0 **** -0.24
24557 H 87.65410171187654 87.79441478409109 86.6309242396668 H 0.0 **** 0.06
24558 H 86.74220289523447 86.7209811951262 87.71922354134324 H 0.0 **** 0.06
24559 H 87.93482893133324 87.86207038427679 88.38655414580683 H 0.0 **** 0.06
24560 H 88.48112566039106 86.44913677231777 87.4509778329878 H 0.0 **** 0.06
24561 C 41.236016162727736 26.25342456087992 138.12334162245443 C 0.0 **** -0.24
24562 H 41.745284749253074 25.321120199029167 138.3659446914994 H 0.0 **** 0.06
24563 H 41.935787259582185 26.932307826726856 137.6337119973942 H 0.0 **** 0.06
24564 H 40.86400326423529 26.71261385709738 139.03911166590825 H 0.0 **** 0.06
24565 H 40.40038403549255 26.047547820091523 137.4543902772727 H 0.0 **** 0.06
24566 C 61.3319998683116 111.92507431418795 40.86317265195976 C 0.0 **** -0.24
24567 H 61.406561114510865 111.37136371988316 39.92732684232044 H 0.0 **** 0.06
24568 H 60.493130281879075 111.54306260172172 41.445069599308624 H 0.0 **** 0.06
24569 H 61.1744937605215 112.98157070336958 40.64811366779122 H 0.0 **** 0.06
24570 H 62.254508227090824 111.80235631718597 41.431320368438264 H 0.0 **** 0.06
24571 C 78.69990867611358 91.70511179046173 47.16174569242858 C 0.0 **** -0.24
24572 H 79.12481477213476 91.89184239495026 48.14796558386956 H 0.0 **** 0.06
24573 H 79.5031237009718 91.4939673137233 46.45546116620767 H 0.0 **** 0.06
24574 H 78.14651026940396 92.58339636906084 46.83110305225239 H 0.0 **** 0.06
24575 H 78.02614141245084 90.8495286502861 47.21352759493777 H 0.0 **** 0.06
24576 C 85.66726107381845 113.38487896712527 126.26831324898993 C 0.0 **** -0.24
24577 H 86.68084337694336 113.7539416339934 126.10970409164864 H 0.0 **** 0.06
24578 H 85.55398470487881 113.06923307468278 127.30602773463389 H 0.0 **** 0.06
24579 H 85.48181057362541 112.53785289678925 125.60826316251817 H 0.0 **** 0.06
24580 H 84.95364538862839 114.17876026078378 126.04988178275713 H 0.0 **** 0.06
24581 C 65.16311755998711 93.00895271783187 38.22899355324938 C 0.0 **** -0.24
24582 H 66.18610275205072 92.76285522729276 38.51492278746332 H 0.0 **** 0.06
24583 H 64.64908001219717 93.4636329020968 39.07583386561572 H 0.0 **** 0.06
24584 H 64.64051294708942 92.09950154053303 37.930864072120755 H 0.0 **** 0.06
24585 H 65.1788630079673 93.70923762097391 37.3938077520387 H 0.0 **** 0.06
24586 C 100.67318489014892 50.68143531006616 60.93684280787974 C 0.0 **** -0.24
24587 H 100.8830908471794 51.2360609673556 61.852242227290645 H 0.0 **** 0.06
24588 H 100.6390643354359 49.6152325821531 61.158431811385114 H 0.0 **** 0.06
24589 H 101.45899019747205 50.87700759377189 60.20688205604526 H 0.0 **** 0.06
24590 H 99.71326410608972 51.000353139186984 60.53066711617478 H 0.0 **** 0.06
24591 C 117.01352743683591 141.54507133342855 36.62824041489621 C 0.0 **** -0.24
24592 H 117.45426248828832 142.5423744169388 36.65245604251237 H 0.0 **** 0.06
24593 H 116.29704179835977 141.48531720016206 35.80907013069712 H 0.0 **** 0.06
24594 H 116.50314737465447 141.35044902023873 37.57150524127401 H 0.0 **** 0.06
24595 H 117.7987663809549 140.80480038110767 36.47953982982007 H 0.0 **** 0.06
24596 C 102.80891309121913 19.438939158930992 47.44725129093098 C 0.0 **** -0.24
24597 H 102.5343831365957 18.387593930623495 47.534249592116396 H 0.0 **** 0.06
24598 H 102.91002110861476 19.701222167667453 46.394519628250336 H 0.0 **** 0.06
24599 H 103.75661341962646 19.60948425789755 47.95751262339563 H 0.0 **** 0.06
24600 H 102.03354613425174 20.055503679599667 47.90277349641333 H 0.0 **** 0.06
24601 C 146.69220857838076 87.92975520944847 107.855333320277 C 0.0 **** -0.24
24602 H 147.4939572749426 87.22550328537801 108.07899927534231 H 0.0 **** 0.06
24603 H 145.79404410238305 87.37968757174188 107.575447023236 H 0.0 **** 0.06
24604 H 146.9964437455834 88.57479129789769 107.03087495267567 H 0.0 **** 0.06
24605 H 146.48705780308316 88.53739411748715 108.73642939278764 H 0.0 **** 0.06
24606 C 17.356531264720218 4.848637093448957 104.83559152551717 C 0.0 **** -0.24
24607 H 16.513802340988946 4.576637550640925 104.1992218028883 H 0.0 **** 0.06
24608 H 18.25274796914809 4.332343595815104 104.49147696590228 H 0.0 **** 0.06
24609 H 17.14274827575551 4.559878234427117 105.86423009871913 H 0.0 **** 0.06
24610 H 17.51511243921766 5.926303886336342 104.7861394926853 H 0.0 **** 0.06
24611 C 78.9942242133101 17.534766483965512 27.71223659204952 C 0.0 **** -0.24
24612 H 79.31369431024558 17.847860895887123 26.71815966529084 H 0.0 **** 0.06
24613 H 79.06662220596324 18.37727044461289 28.400378877994797 H 0.0 **** 0.06
24614 H 79.63610370553451 16.724927265522922 28.061250039117567 H 0.0 **** 0.06
24615 H 77.96243807570002 17.18685185995588 27.66986978130683 H 0.0 **** 0.06
24616 C 140.32941796326477 48.776730975453106 62.86722596967576 C 0.0 **** -0.24
24617 H 139.3019477316204 48.60508298474265 63.189649764818455 H 0.0 **** 0.06
24618 H 141.004246352126 48.62528814994606 63.71013576401538 H 0.0 **** 0.06
24619 H 140.42890122498133 49.79784577616611 62.50025348383622 H 0.0 **** 0.06
24620 H 140.58127473926535 48.07752690871489 62.070247923923944 H 0.0 **** 0.06
24621 C 58.75695170540797 105.50954499688785 25.02180878824595 C 0.0 **** -0.24
24622 H 58.64490956649787 105.99274102157884 24.051032111942448 H 0.0 **** 0.06
24623 H 59.00257855573054 104.45797723134305 24.877549170314865 H 0.0 **** 0.06
24624 H 57.82317291359645 105.59332247966125 25.578723247250934 H 0.0 **** 0.06
24625 H 59.55674974580168 105.99701500765212 25.579173358526532 H 0.0 **** 0.06
24626 C 22.930450896538275 107.01025392393825 94.20185815048754 C 0.0 **** -0.24
24627 H 21.89126704063068 106.7725885167718 93.97353543038332 H 0.0 **** 0.06
24628 H 23.282701679402436 107.78723013142638 93.52367931513302 H 0.0 **** 0.06
24629 H 23.54234994762743 106.11585563898785 94.07961872176548 H 0.0 **** 0.06
24630 H 23.00469522249867 107.36324941747029 95.23058948330024 H 0.0 **** 0.06
24631 C 106.27157884484217 28.060854121397597 48.88256070788418 C 0.0 **** -0.24
24632 H 105.5141183806553 28.540567807317416 49.5014036398461 H 0.0 **** 0.06
24633 H 107.17500703847463 28.671767148282612 48.875632861567055 H 0.0 **** 0.06
24634 H 105.89667138907049 27.95435670613182 47.8647056689702 H 0.0 **** 0.06
24635 H 106.50216884989032 27.075482494187952 49.28935701200862 H 0.0 **** 0.06
24636 C 159.7222344852628 30.653967211373725 146.54827287267554 C 0.0 **** -0.24
24637 H 160.77095128899938 30.38523758915585 146.41835111522857 H 0.0 **** 0.06
24638 H 159.17611714449444 30.438888874430518 145.62926233329063 H 0.0 **** 0.06
24639 H 159.64540170426676 31.716149555762797 146.7776906983845 H 0.0 **** 0.06
24640 H 159.29784197290698 30.07309935379945 147.36684156110127 H 0.0 **** 0.06
24641 C 33.17501276310891 10.63297509800205 19.072985535436572 C 0.0 **** -0.24
24642 H 33.70980536250735 9.868826853386196 18.508539317711346 H 0.0 **** 0.06
24643 H 32.59436555733156 11.25060308855268 18.388119373115927 H 0.0 **** 0.06
24644 H 33.89137376807177 11.257870000354558 19.606944780606504 H 0.0 **** 0.06
24645 H 32.50534756787981 10.155006653141498 19.788695606755304 H 0.0 **** 0.06
24646 C 81.42493509469176 16.6072581286206 93.2609022676508 C 0.0 **** -0.24
24647 H 81.99955220365462 15.810748326023308 93.73354747791154 H 0.0 **** 0.06
24648 H 81.28639107138031 16.376642006018017 92.20410475949137 H 0.0 **** 0.06
24649 H 81.96150032909219 17.550147496304653 93.35979886027883 H 0.0 **** 0.06
24650 H 80.45179791933009 16.69055628575464 93.74446367075512 H 0.0 **** 0.06
24651 C 51.71404093541152 74.78752538038115 113.81096478039677 C 0.0 **** -0.24
24652 H 51.27538301551816 74.4377634459504 112.87564823260112 H 0.0 **** 0.06
24653 H 51.140771924737905 75.63714448155288 114.18476722613462 H 0.0 **** 0.06
24654 H 52.744922665681614 75.0934752124883 113.63620577824997 H 0.0 **** 0.06
24655 H 51.692223569684174 73.9828442858409 114.54564465190339 H 0.0 **** 0.06
24656 C 170.47727798798815 10.183673647329186 64.51988683171516 C 0.0 **** -0.24
24657 H 171.36648181163895 10.145302334756053 63.8901627617343 H 0.0 **** 0.06
24658 H 170.2556373756907 9.184669933236137 64.89541073852757 H 0.0 **** 0.06
24659 H 169.6329037469269 10.54768210250029 63.93411880224531 H 0.0 **** 0.06
24660 H 170.65485852298337 10.857488223919177 65.35757306891139 H 0.0 **** 0.06
24661 C 157.97456982669405 137.16689248345767 108.91776487243655 C 0.0 **** -0.24
24662 H 157.84564982911476 138.08881443666797 108.34957408783458 H 0.0 **** 0.06
24663 H 159.0391006374254 136.96556185749589 109.04446279991421 H 0.0 **** 0.06
24664 H 157.51024000584803 136.34166209246598 108.37895714116391 H 0.0 **** 0.06
24665 H 157.50499645207958 137.27418022168428 109.89473842733926 H 0.0 **** 0.06
24666 C 81.94091234105954 63.82110141595899 71.53927224341948 C 0.0 **** -0.24
24667 H 82.26002840891995 63.72486886706277 70.5019148355077 H 0.0 **** 0.06
24668 H 80.90708110117035 64.16537910560433 71.57040149761099 H 0.0 **** 0.06
24669 H 82.579952174241 64.54185020404408 72.05083406903304 H 0.0 **** 0.06
24670 H 82.01697952794692 62.852866176240624 72.03466956367186 H 0.0 **** 0.06
24671 C 13.32987425269954 166.7777966956698 33.812734960027626 C 0.0 **** -0.24
24672 H 13.376935846948612 167.6686213156314 33.185840306385984 H 0.0 **** 0.06
24673 H 12.505201421525243 166.87383948430812 34.518260055681196 H 0.0 **** 0.06
24674 H 14.266632789959829 166.66946698724365 34.359773636313605 H 0.0 **** 0.06
24675 H 13.171343590692345 165.90012834111582 33.184860356985325 H 0.0 **** 0.06
24676 C 43.085035640207366 71.9966372737822 3.0694541594072575 C 0.0 **** -0.24
24677 H 42.4578158937432 72.88524790618337 3.1461988111528 H 0.0 **** 0.06
24678 H 42.54291270154533 71.13480231553785 3.4593893155621913 H 0.0 **** 0.06
24679 H 43.99686123265684 72.14504148368626 3.6479232283479064 H 0.0 **** 0.06
24680 H 43.3420995546976 71.82311860902882 2.0241180294223113 H 0.0 **** 0.06
24681 C 55.19089993594328 117.9631321958293 7.7031758970260285 C 0.0 **** -0.24
24682 H 55.89269531959384 118.53024973564078 7.093167643985424 H 0.0 **** 0.06
24683 H 54.215500072670096 118.4489452538167 7.680905755509876 H 0.0 **** 0.06
24684 H 55.553370299658056 117.9211918034643 8.730037333428449 H 0.0 **** 0.06
24685 H 55.10198165713922 116.95075946086553 7.308299729342728 H 0.0 **** 0.06
24686 C 111.04762093332022 67.87756740243967 30.35964866212879 C 0.0 **** -0.24
24687 H 109.99840641284925 68.17177295858232 30.361113738741096 H 0.0 **** 0.06
24688 H 111.32628434141702 67.53118827059842 29.36400494554414 H 0.0 **** 0.06
24689 H 111.20079402849973 67.07431094950243 31.079670350095057 H 0.0 **** 0.06
24690 H 111.66549596531073 68.73310185973162 30.632944162522563 H 0.0 **** 0.06
24691 C 154.8333719223692 95.5528367633508 158.6461215983378 C 0.0 **** -0.24
24692 H 155.91451960671952 95.63370683033673 158.75997198139083 H 0.0 **** 0.06
24693 H 154.3477957496445 95.81788972368156 159.58559693545274 H 0.0 **** 0.06
24694 H 154.57306964375385 94.52850399567697 158.3787710780581 H 0.0 **** 0.06
24695 H 154.4993543519935 96.22916765421138 157.85981189432076 H 0.0 **** 0.06
24696 C 37.84458792408884 164.2088797153392 17.297466237102874 C 0.0 **** -0.24
24697 H 37.665371293583064 164.06811111565818 18.362869801698807 H 0.0 **** 0.06
24698 H 38.44668945800851 165.1052354239193 17.146537810659247 H 0.0 **** 0.06
24699 H 36.89132256840546 164.31938620298754 16.78043754655898 H 0.0 **** 0.06
24700 H 38.37415904175367 163.34336936255903 16.900089303073024 H 0.0 **** 0.06
24701 C 113.6658937645687 76.60665210525151 9.493450334972238 C 0.0 **** -0.24
24702 H 113.86973512742611 76.08032595428547 10.42668165967433 H 0.0 **** 0.06
24703 H 112.59522604640915 76.79316351408664 9.408407266195695 H 0.0 **** 0.06
24704 H 113.99738940420872 75.99664697826086 8.653164329954564 H 0.0 **** 0.06
24705 H 114.20192112763294 77.55581909160382 9.488562832114326 H 0.0 **** 0.06
24706 C 95.62208197919063 148.94178628198125 47.2515888876909 C 0.0 **** -0.24
24707 H 96.25807338630537 149.82716400695804 47.226942916561086 H 0.0 **** 0.06
24708 H 96.15228955431866 148.10053968266197 46.8051280578683 H 0.0 **** 0.06
24709 H 94.70861739977082 149.1358758027185 46.688614704481424 H 0.0 **** 0.06
24710 H 95.36908450082532 148.70584150290358 48.28480304614679 H 0.0 **** 0.06
24711 C 120.65071545248341 41.139541216024554 106.86127730112756 C 0.0 **** -0.24
24712 H 121.47459773790979 41.84038046957528 106.99644204854593 H 0.0 **** 0.06
24713 H 119.80227138028161 41.659064199766306 106.41743310187803 H 0.0 **** 0.06
24714 H 120.36161179882421 40.728907067350605 107.82813345793073 H 0.0 **** 0.06
24715 H 120.96714252183335 40.330255259237276 106.20267851958394 H 0.0 **** 0.06
24716 C 87.96248271190359 119.07757557962492 80.46814509512514 C 0.0 **** -0.24
24717 H 87.87179742507402 120.14610526617412 80.6636538559194 H 0.0 **** 0.06
24718 H 87.15623219942432 118.75911746377278 79.80648071132431 H 0.0 **** 0.06
24719 H 87.8991201831704 118.53019340910913 81.4081132374933 H 0.0 **** 0.06
24720 H 88.92274477680172 118.87558951152192 79.99362262019886 H 0.0 **** 0.06
24721 C 121.5821539271696 74.6549689826005 125.72649116436725 C 0.0 **** -0.24
24722 H 121.4469752594743 74.27687918259119 124.7123905488069 H 0.0 **** 0.06
24723 H 122.63671784716581 74.87745594023134 125.89269798987061 H 0.0 **** 0.06
24724 H 121.25255735305615 73.90152990068206 126.44200904525741 H 0.0 **** 0.06
24725 H 120.99453041504165 75.56305371496134 125.85702422494583 H 0.0 **** 0.06
24726 C 131.41103519642942 171.7826817338838 73.69718954334405 C 0.0 **** -0.24
24727 H 131.9001785472431 172.29325185537175 72.8675829372547 H 0.0 **** 0.06
24728 H 130.72996573941705 171.0255883750242 73.30786674653004 H 0.0 **** 0.06
24729 H 130.85062875143194 172.50611160824346 74.28972057999023 H 0.0 **** 0.06
24730 H 132.16445787256202 171.30607243647074 74.32523816065108 H 0.0 **** 0.06
24731 C 68.64381525198861 46.9216805262776 46.23240446597245 C 0.0 **** -0.24
24732 H 68.19083349538944 46.544996135649114 47.14976622556978 H 0.0 **** 0.06
24733 H 68.06652057117232 47.77039587604354 45.86437278579257 H 0.0 **** 0.06
24734 H 68.65049343507579 46.132563237857156 45.48068345087472 H 0.0 **** 0.06
24735 H 69.66656210945894 47.23860681043482 46.436856869238426 H 0.0 **** 0.06
24736 C 146.9963296007582 67.80666154269841 171.10602412131368 C 0.0 **** -0.24
24737 H 146.0663656200083 67.62396218971888 171.64466419847673 H 0.0 **** 0.06
24738 H 147.83728124630295 67.71856691031962 171.79295193053568 H 0.0 **** 0.06
24739 H 146.97800897225736 68.80999594806195 170.67998818113182 H 0.0 **** 0.06
24740 H 147.10150030484496 67.07475793961004 170.30553339195242 H 0.0 **** 0.06
24741 C 59.48661744128431 60.988845478749624 87.3123997542465 C 0.0 **** -0.24
24742 H 60.313210811661364 60.557962156376334 87.87732996805188 H 0.0 **** 0.06
24743 H 59.778118143757766 61.96896951388658 86.93442301973903 H 0.0 **** 0.06
24744 H 58.617492964443215 61.09341792425107 87.96181443764338 H 0.0 **** 0.06
24745 H 59.23897482336638 60.335520183051074 86.4760658716381 H 0.0 **** 0.06
24746 C 158.4141299990801 72.33963818890453 90.9390679424925 C 0.0 **** -0.24
24747 H 158.0739219445352 72.94260253741795 90.09739897655771 H 0.0 **** 0.06
24748 H 157.5846299161088 71.73845994844523 91.31269415668652 H 0.0 **** 0.06
24749 H 158.77555522438672 72.9938618365792 91.7325352788319 H 0.0 **** 0.06
24750 H 159.22125901132242 71.68425622536682 90.61311948033784 H 0.0 **** 0.06
24751 C 93.814672356757 33.2903902575036 50.123532108744755 C 0.0 **** -0.24
24752 H 93.98163451214813 32.35749331119216 49.583355134735555 H 0.0 **** 0.06
24753 H 92.81231587528225 33.660757480599656 49.90743999266601 H 0.0 **** 0.06
24754 H 94.55235217850245 34.028881706144176 49.80891161075374 H 0.0 **** 0.06
24755 H 93.91327200225615 33.11124647112035 51.19472388953422 H 0.0 **** 0.06
24756 C 4.7576086729242775 2.543011178113886 132.3745434411204 C 0.0 **** -0.24
24757 H 5.022247859273875 2.566785063854411 133.43203864705038 H 0.0 **** 0.06
24758 H 3.713748817836347 2.2513624112101525 132.26857776710722 H 0.0 **** 0.06
24759 H 5.391756548106173 1.8221486068959507 131.85746333095824 H 0.0 **** 0.06
24760 H 4.904811004738548 3.532579212738028 131.94203707143208 H 0.0 **** 0.06
24761 C 40.41989453606948 11.347507605447717 50.36785505978379 C 0.0 **** -0.24
24762 H 40.024313012281596 11.262516820018064 49.35667804464228 H 0.0 **** 0.06
24763 H 40.468836958482285 12.399358391860233 50.6512166215941 H 0.0 **** 0.06
24764 H 41.419793493093266 10.914180926986766 50.405007101093574 H 0.0 **** 0.06
24765 H 39.76753132383675 10.814434426697794 51.05951061804329 H 0.0 **** 0.06
24766 C 36.18437756906371 96.6879393785648 131.27178302219113 C 0.0 **** -0.24
24767 H 35.394923301302185 97.2645399249588 131.754024619856 H 0.0 **** 0.06
24768 H 37.046755110407474 97.32947206575724 131.0957747258107 H 0.0 **** 0.06
24769 H 35.819516020696085 96.2989820089729 130.32101995631444 H 0.0 **** 0.06
24770 H 36.47349573112592 95.85835347528896 131.9172503812601 H 0.0 **** 0.06
24771 C 9.630418225558302 84.81786870563137 106.84741458176899 C 0.0 **** -0.24
24772 H 9.515749428446739 84.29364278342177 107.79599374294722 H 0.0 **** 0.06
24773 H 9.336858654087834 85.86087536155644 106.97139891664668 H 0.0 **** 0.06
24774 H 8.996248301517568 84.34861423628183 106.0946888949421 H 0.0 **** 0.06
24775 H 10.670902221930149 84.76797725071431 106.52867324204911 H 0.0 **** 0.06
24776 C 49.876864029906415 156.18181203188774 82.43682456561513 C 0.0 **** -0.24
24777 H 50.01902323221698 157.25946319049922 82.35146680789964 H 0.0 **** 0.06
24778 H 50.677898034120744 155.66671661612745 81.90778355854923 H 0.0 **** 0.06
24779 H 48.91606783236357 155.90695459570836 82.00087817100284 H 0.0 **** 0.06
24780 H 49.89298889655535 155.8954514929942 83.48859299354034 H 0.0 **** 0.06
24781 C 14.839184628921913 71.13744436046704 143.73715530539005 C 0.0 **** -0.24
24782 H 14.35992948017386 72.1091083209651 143.61894436442844 H 0.0 **** 0.06
24783 H 14.385065395461737 70.42342192820256 143.04955520808352 H 0.0 **** 0.06
24784 H 14.7077880442844 70.789471241615 144.76193032587992 H 0.0 **** 0.06
24785 H 15.902787255859948 71.22728945073946 143.5170087906871 H 0.0 **** 0.06
24786 C 117.60543799901853 45.02771792240026 38.685907914902174 C 0.0 **** -0.24
24787 H 117.89354468310853 43.97644262256756 38.70765608918374 H 0.0 **** 0.06
24788 H 117.01326085577642 45.260489676910026 39.571376575517036 H 0.0 **** 0.06
24789 H 117.01391067699373 45.22320659674108 37.79095215206294 H 0.0 **** 0.06
24790 H 118.50047241615019 45.64990328367344 38.67223453325042 H 0.0 **** 0.06
24791 C 82.45958723529044 112.16387738884532 15.7937071115594 C 0.0 **** -0.24
24792 H 82.54056203244185 113.07382961225724 16.38763824949808 H 0.0 **** 0.06
24793 H 82.35759342209639 112.4247705821177 14.740284503770852 H 0.0 **** 0.06
24794 H 81.58353762754712 111.59827759581711 16.113782402278446 H 0.0 **** 0.06
24795 H 83.35423849848917 111.55729275225664 15.933726312756903 H 0.0 **** 0.06
24796 C 126.06963242739943 68.12039864323853 66.21899009630192 C 0.0 **** -0.24
24797 H 125.20812296558216 68.57158460993674 65.72531318346694 H 0.0 **** 0.06
24798 H 126.71691210591459 68.90555793166266 66.60935542138031 H 0.0 **** 0.06
24799 H 126.62427165590657 67.51656380913323 65.50019873110745 H 0.0 **** 0.06
24800 H 125.7284618734036 67.48817098978014 67.03820496904223 H 0.0 **** 0.06
24801 C 46.83766689399326 133.53501511146712 156.66144395894796 C 0.0 **** -0.24
24802 H 46.660623888842665 132.8364498513861 155.8437370839651 H 0.0 **** 0.06
24803 H 47.76899327728556 134.0732268029451 156.48319820785548 H 0.0 **** 0.06
24804 H 46.90952325629273 132.98540670994666 157.60030575374077 H 0.0 **** 0.06
24805 H 46.01284253228084 134.24539191159835 156.71822213910153 H 0.0 **** 0.06
24806 C 3.3890689011579695 19.42458090124012 55.483953054475364 C 0.0 **** -0.24
24807 H 3.7779592566753024 20.107438403444633 54.72817390308505 H 0.0 **** 0.06
24808 H 2.494672991991763 19.854680874953573 55.93556923799363 H 0.0 **** 0.06
24809 H 4.143962718180347 19.266218503076857 56.254150342277114 H 0.0 **** 0.06
24810 H 3.1380103243376993 18.47137951385008 55.01843624765334 H 0.0 **** 0.06
24811 C 98.85621714893497 120.7067199654843 76.76273818180783 C 0.0 **** -0.24
24812 H 98.97102750552878 121.68302335246659 77.23333934583047 H 0.0 **** 0.06
24813 H 99.82501029063121 120.20936649984236 76.71689538965651 H 0.0 **** 0.06
24814 H 98.46534145464881 120.83489331125867 75.75276293336825 H 0.0 **** 0.06
24815 H 98.16239050996768 120.10159106312045 77.34705215275886 H 0.0 **** 0.06
24816 C 104.71286699268083 121.79334390293099 72.24680435098952 C 0.0 **** -0.24
24817 H 104.02840902236625 122.14182411602218 71.47338918906956 H 0.0 **** 0.06
24818 H 105.20868505615508 120.88296451499846 71.90980582645261 H 0.0 **** 0.06
24819 H 104.15313678350705 121.58593234397645 73.15936599309663 H 0.0 **** 0.06
24820 H 105.45907211788 122.56319207961525 72.44481166791513 H 0.0 **** 0.06
24821 C 121.35441489940769 147.43771161775595 127.29274441241802 C 0.0 **** -0.24
24822 H 121.66644044868775 146.40283240776958 127.14976790666071 H 0.0 **** 0.06
24823 H 120.40850865746472 147.46024084499382 127.8331766268031 H 0.0 **** 0.06
24824 H 121.23006846159319 147.916370447334 126.32107219884725 H 0.0 **** 0.06
24825 H 122.11444271788872 147.96948812977118 127.86551456908072 H 0.0 **** 0.06
24826 C 52.44496220936966 33.64234978190427 25.834895757117778 C 0.0 **** -0.24
24827 H 51.929635029291276 34.184459522412055 25.041502957494743 H 0.0 **** 0.06
24828 H 53.37979247841457 33.23565083400263 25.448673632695005 H 0.0 **** 0.06
24829 H 51.812069316255275 32.82790888719353 26.186700798022628 H 0.0 **** 0.06
24830 H 52.656227572903674 34.32104112559176 26.660387823585324 H 0.0 **** 0.06
24831 C 100.20729943747574 95.5618535424457 93.62410996475276 C 0.0 **** -0.24
24832 H 99.71444469132578 95.31353414828044 94.56360495570542 H 0.0 **** 0.06
24833 H 100.84691680694033 94.73304716143639 93.3192873735785 H 0.0 **** 0.06
24834 H 100.8136615187289 96.45819935870821 93.75838363339514 H 0.0 **** 0.06
24835 H 99.45553920804912 95.74292005012154 92.85540086312173 H 0.0 **** 0.06
24836 C 24.50252727641174 105.60850854779869 36.14987580783345 C 0.0 **** -0.24
24837 H 25.305165745628386 104.9682249713731 35.78245010789239 H 0.0 **** 0.06
24838 H 24.832654031576254 106.12278453475435 37.05311428870209 H 0.0 **** 0.06
24839 H 23.627941198971598 104.99970130183647 36.376397508124526 H 0.0 **** 0.06
24840 H 24.246012178730666 106.34274479245045 35.38616426001195 H 0.0 **** 0.06
24841 C 11.406307338734813 114.33259278033836 3.395739574189939 C 0.0 **** -0.24
24842 H 11.16839119103453 114.59327191209783 4.427039473790543 H 0.0 **** 0.06
24843 H 12.296547256741405 113.70309505088895 3.3761510042980447 H 0.0 **** 0.06
24844 H 11.592068687674626 115.24302492802985 2.825216802768715 H 0.0 **** 0.06
24845 H 10.568879806792381 113.79253418539079 2.9549380269015586 H 0.0 **** 0.06
24846 C 30.811119908471028 122.55098179719675 77.97006391980632 C 0.0 **** -0.24
24847 H 31.849683484385537 122.485286357456 78.29545140063978 H 0.0 **** 0.06
24848 H 30.465891174036457 123.58086987266682 78.06547294328567 H 0.0 **** 0.06
24849 H 30.194330541286746 121.90133343846236 78.59038887370748 H 0.0 **** 0.06
24850 H 30.737399218103164 122.2377328801627 76.92835686988046 H 0.0 **** 0.06
24851 C 76.3001609278167 132.54874503237187 53.37998090314825 C 0.0 **** -0.24
24852 H 75.53417163701505 131.97360597670365 53.899652572124324 H 0.0 **** 0.06
24853 H 76.50974711673652 132.08592893568667 52.414536894481486 H 0.0 **** 0.06
24854 H 77.21019483113457 132.56810153827217 53.979262801402484 H 0.0 **** 0.06
24855 H 75.9461069313009 133.56864874170608 53.224705599285954 H 0.0 **** 0.06
24856 C 86.2692025388535 104.66341156196009 120.94875789286354 C 0.0 **** -0.24
24857 H 86.32335267551571 105.67946941148591 120.55872279772407 H 0.0 **** 0.06
24858 H 86.3373387388357 104.68722781205031 122.03688907119306 H 0.0 **** 0.06
24859 H 87.09438345155253 104.07535868672119 120.54616072181219 H 0.0 **** 0.06
24860 H 85.3231042920854 104.21107800584605 120.65232977034202 H 0.0 **** 0.06
24861 C 74.53637561820102 32.14627124438125 172.27058784517843 C 0.0 **** -0.24
24862 H 75.03099576090096 32.62687781929475 171.42611970610017 H 0.0 **** 0.06
24863 H 75.23184692361781 31.459643901026013 172.75526278164185 H 0.0 **** 0.06
24864 H 73.66813422027417 31.59228028317581 171.91483926457065 H 0.0 **** 0.06
24865 H 74.21741091737528 32.90515831400711 172.98402955937132 H 0.0 **** 0.06
24866 C 167.13731688799913 58.00416070802309 141.07411261639976 C 0.0 **** -0.24
24867 H 166.7375234602731 57.25510886783282 140.39001630506502 H 0.0 **** 0.06
24868 H 166.3369020055718 58.674770682262775 141.38491389065902 H 0.0 **** 0.06
24869 H 167.91549322832378 58.5763934937293 140.56899836333977 H 0.0 **** 0.06
24870 H 167.55878784580602 57.509700763955635 141.94849224813504 H 0.0 **** 0.06
24871 C 8.384489709099682 139.80529593778516 135.63103552927268 C 0.0 **** -0.24
24872 H 8.789359940535519 138.8432445611703 135.9423157579217 H 0.0 **** 0.06
24873 H 7.579113805329996 140.09581066297073 136.30556205258935 H 0.0 **** 0.06
24874 H 7.995663644022386 139.7239046046787 134.61536040235205 H 0.0 **** 0.06
24875 H 9.17246910252257 140.55743850755073 135.65965714799506 H 0.0 **** 0.06
24876 C 46.18647705175468 106.54039743005893 149.97546905410184 C 0.0 **** -0.24
24877 H 46.97230136498267 106.53489846683331 149.22001084892938 H 0.0 **** 0.06
24878 H 46.52269756413159 107.10269619639902 150.84610791450888 H 0.0 **** 0.06
24879 H 45.95862905983749 105.51552617481673 150.2691957983889 H 0.0 **** 0.06
24880 H 45.291524495428206 107.0072647673795 149.56411641138592 H 0.0 **** 0.06
24881 C 113.8315013262428 102.0075165366386 148.89823285578444 C 0.0 **** -0.24
24882 H 114.77721626586589 101.46592039820709 148.85843217841327 H 0.0 **** 0.06
24883 H 113.81200486345702 102.76102439885366 148.10985412761846 H 0.0 **** 0.06
24884 H 113.73217992991343 102.492964537251 149.86900918386752 H 0.0 **** 0.06
24885 H 113.007579480211 101.30874098101691 148.7538628588468 H 0.0 **** 0.06
24886 C 65.66051134001663 22.4788653746524 157.37307645801323 C 0.0 **** -0.24
24887 H 66.61719914319377 22.99835280547694 157.31428483710044 H 0.0 **** 0.06
24888 H 65.76379306848744 21.598024646582587 158.0067338421145 H 0.0 **** 0.06
24889 H 65.35033635446388 22.174334213702963 156.37339878947577 H 0.0 **** 0.06
24890 H 64.91070808620881 23.1461553676603 157.797731992239 H 0.0 **** 0.06
24891 C 62.32913686944137 91.6370622214647 85.24297036108419 C 0.0 **** -0.24
24892 H 61.95209253371206 92.59922942774944 84.89571968436832 H 0.0 **** 0.06
24893 H 62.34590971609586 90.93228793514061 84.41177901404171 H 0.0 **** 0.06
24894 H 61.67893994457482 91.25539624582355 86.03053003688518 H 0.0 **** 0.06
24895 H 63.33862021419722 91.76269307690185 85.634284104818 H 0.0 **** 0.06
24896 C 96.88833511338623 60.608750867225226 155.25372646963856 C 0.0 **** -0.24
24897 H 95.91822436691635 60.43419874475103 155.71640217972183 H 0.0 **** 0.06
24898 H 97.54859021503609 59.76752675197163 155.46663818065431 H 0.0 **** 0.06
24899 H 97.32411688453499 61.52298915905729 155.65534413466577 H 0.0 **** 0.06
24900 H 96.76384102291291 60.70867245475257 154.17536517136722 H 0.0 **** 0.06
24901 C 150.73123619848718 3.680751691217921 44.74835597873319 C 0.0 **** -0.24
24902 H 150.8037306238204 4.001274363053938 43.70987106610802 H 0.0 **** 0.06
24903 H 150.6482005144165 2.594788205016698 44.78817504828244 H 0.0 **** 0.06
24904 H 149.85076582431589 4.130453369261517 45.20743386869778 H 0.0 **** 0.06
24905 H 151.62330255652665 3.997688676460456 45.28951009036811 H 0.0 **** 0.06
24906 C 85.32782971746627 132.31629253288446 75.02482548806131 C 0.0 **** -0.24
24907 H 85.02036959834247 131.42456101791453 74.47914211082696 H 0.0 **** 0.06
24908 H 84.51912703086914 132.6343903385395 75.68427752612968 H 0.0 **** 0.06
24909 H 85.55670038026852 133.11373873079953 74.31879437735896 H 0.0 **** 0.06
24910 H 86.21379065844332 132.09086884617756 75.6194611680846 H 0.0 **** 0.06
24911 C 58.04684876402433 129.45557089092313 80.98208763179365 C 0.0 **** -0.24
24912 H 58.60363529791164 128.95274521544485 80.19112411114615 H 0.0 **** 0.06
24913 H 58.529238072278815 129.267788746137 81.9412881344502 H 0.0 **** 0.06
24914 H 57.026032681634206 129.0741139521177 81.00745134645298 H 0.0 **** 0.06
24915 H 58.02908073761 130.5287372797082 80.78782639028081 H 0.0 **** 0.06
24916 C 169.2678232162944 109.2876287572474 105.21914722078048 C 0.0 **** -0.24
24917 H 169.16161173352575 109.72071909744619 106.21378185942606 H 0.0 **** 0.06
24918 H 170.0775784977024 109.7893227954684 104.68955619490185 H 0.0 **** 0.06
24919 H 168.3376188118457 109.4165379831833 104.66631329793353 H 0.0 **** 0.06
24920 H 169.49361774439285 108.22538605332036 105.30840209120555 H 0.0 **** 0.06
24921 C 98.06105383234205 83.672187488696 72.88330385603231 C 0.0 **** -0.24
24922 H 97.79303949628076 82.79459312338705 72.29501087598328 H 0.0 **** 0.06
24923 H 99.13933010390284 83.82956817094122 72.82937009070594 H 0.0 **** 0.06
24924 H 97.76783824826177 83.51655423936027 73.92161455283929 H 0.0 **** 0.06
24925 H 97.54542336337283 84.5463058240332 72.48730574598727 H 0.0 **** 0.06
24926 C 44.4913946720512 46.74225149842988 95.89530711039978 C 0.0 **** -0.24
24927 H 45.14261050054512 46.47046854714944 95.06470061498621 H 0.0 **** 0.06
24928 H 43.462912161766894 46.81623898303707 95.54124104672783 H 0.0 **** 0.06
24929 H 44.80497534360768 47.70348433481402 96.30295989440518 H 0.0 **** 0.06
24930 H 44.555247331314376 45.97956122981242 96.67077313136409 H 0.0 **** 0.06
24931 C 149.0905375193298 130.22890325286028 135.5945473011545 C 0.0 **** -0.24
24932 H 148.26752747471073 129.8542972815085 134.98790411908612 H 0.0 **** 0.06
24933 H 149.44495770658742 131.17490796704675 135.18246762518575 H 0.0 **** 0.06
24934 H 149.90413111111747 129.50321510232192 135.59202272490995 H 0.0 **** 0.06
24935 H 148.74652864977423 130.38559405046186 136.61729267463213 H 0.0 **** 0.06
24936 C 139.88312044801074 42.66227410522919 14.469819839504197 C 0.0 **** -0.24
24937 H 140.73086648643343 42.875851268606596 15.119670278075318 H 0.0 **** 0.06
24938 H 139.3163218846773 43.577559618570945 14.29868828764171 H 0.0 **** 0.06
24939 H 139.24038814013113 41.91989885875597 14.94375061434755 H 0.0 **** 0.06
24940 H 140.245098946263 42.27408799223463 13.516892591202122 H 0.0 **** 0.06
24941 C 44.79329559024359 69.73629021891634 137.32149763254682 C 0.0 **** -0.24
24942 H 45.702764716495295 69.26853664912119 137.6990154480015 H 0.0 **** 0.06
24943 H 43.92532708645942 69.17441089455696 137.66813940446275 H 0.0 **** 0.06
24944 H 44.812583716195036 69.74045494771246 136.23219291083927 H 0.0 **** 0.06
24945 H 44.7333175679895 70.7609377961752 137.68746094419993 H 0.0 **** 0.06
24946 C 0.1103544254829103 120.61011384990624 110.20566856596906 C 0.0 **** -0.24
24947 H 0.1458376090664899 119.97153856873504 109.32352928333245 H 0.0 **** 0.06
24948 H -0.8475706651555583 121.13139709650414 110.23857066055467 H 0.0 **** 0.06
24949 H 0.9189976622163556 121.33879097717289 110.1594526121022 H 0.0 **** 0.06
24950 H 0.22235123875003637 119.99957641579033 111.10130851746632 H 0.0 **** 0.06
24951 C 146.69070498743812 131.9374152326586 4.301579008893157 C 0.0 **** -0.24
24952 H 145.6000842976656 131.94738976545173 4.2807401654033015 H 0.0 **** 0.06
24953 H 147.07344316555685 132.5776551385837 3.5073860172623483 H 0.0 **** 0.06
24954 H 147.04664439606717 130.91791226216057 4.151718981896067 H 0.0 **** 0.06
24955 H 147.03797809639366 132.30647057128473 5.26684153372733 H 0.0 **** 0.06
24956 C 25.28383349517202 72.93393371595661 113.14103181262516 C 0.0 **** -0.24
24957 H 24.95243476570107 72.04033893777917 113.66877171489386 H 0.0 **** 0.06
24958 H 26.322692796657464 72.80989773421243 112.83377192644187 H 0.0 **** 0.06
24959 H 25.201257336771704 73.7972242942929 113.80081186748706 H 0.0 **** 0.06
24960 H 24.660070645882683 73.08841345618305 112.25992164008682 H 0.0 **** 0.06
24961 C 58.13335264015225 161.67038943120718 102.56078301490834 C 0.0 **** -0.24
24962 H 57.48682287055057 161.75210288318283 103.43453432636406 H 0.0 **** 0.06
24963 H 58.866348836039705 160.8797963494002 102.72498524939905 H 0.0 **** 0.06
24964 H 58.64991159824481 162.61697521030217 102.40064119700608 H 0.0 **** 0.06
24965 H 57.53136648251257 161.43154385959085 101.68375983507673 H 0.0 **** 0.06
24966 C 89.95966484227719 163.20502832308554 131.17577519162782 C 0.0 **** -0.24
24967 H 90.34912018810009 163.8395834041712 131.97208391141749 H 0.0 **** 0.06
24968 H 89.90909689750939 162.17476712744292 131.52519167727522 H 0.0 **** 0.06
24969 H 90.61949510660834 163.26424752918845 130.31027632435422 H 0.0 **** 0.06
24970 H 88.9629755638549 163.54464373677996 130.89586268834378 H 0.0 **** 0.06
24971 C 110.9937848773647 0.6872278302929544 95.72158250228247 C 0.0 **** -0.24
24972 H 110.27306045403719 -0.12021583302376371 95.84928219068306 H 0.0 **** 0.06
24973 H 110.46676988663143 1.6414967778900973 95.67501826323306 H 0.0 **** 0.06
24974 H 111.55088818840977 0.5348439743076767 94.79668992924599 H 0.0 **** 0.06
24975 H 111.68453849636768 0.6944052539994345 96.5647349839378 H 0.0 **** 0.06
24976 C 9.337245330695964 94.17253216675454 25.216463998446116 C 0.0 **** -0.24
24977 H 9.430308901585136 94.93085244176063 25.99418356875085 H 0.0 **** 0.06
24978 H 8.281214910851645 93.9793415894045 25.022033033019063 H 0.0 **** 0.06
24979 H 9.819630539242098 93.25206215321603 25.547634185138172 H 0.0 **** 0.06
24980 H 9.816363017137292 94.5254142868043 24.30441653494902 H 0.0 **** 0.06
24981 C 83.84245237606086 125.0915302691923 144.05242218879533 C 0.0 **** -0.24
24982 H 82.85187290920697 125.50236194101913 144.25062127079934 H 0.0 **** 0.06
24983 H 83.8424084040256 124.59773258349523 143.07978963870153 H 0.0 **** 0.06
24984 H 84.09644656067144 124.36848478321784 144.82718044090444 H 0.0 **** 0.06
24985 H 84.5760818677212 125.89667263804819 144.0516011035803 H 0.0 **** 0.06
24986 C 61.99748562408725 119.14688835829466 0.46822323315700487 C 0.0 **** -0.24
24987 H 61.96018126096642 119.3487642776663 -0.6024721926047789 H 0.0 **** 0.06
24988 H 61.16886506876314 119.65349073298736 0.9621667219564642 H 0.0 **** 0.06
24989 H 62.94150343075283 119.5122724361998 0.873233181490292 H 0.0 **** 0.06
24990 H 61.92094742495469 118.07270664515272 0.6383900701378025 H 0.0 **** 0.06
24991 C 18.97103233904835 8.69970778667573 144.6743666675794 C 0.0 **** -0.24
24992 H 18.22731903701831 9.085929211745452 143.97770196580964 H 0.0 **** 0.06
24993 H 18.703531391277778 7.682945149650038 144.96343619357754 H 0.0 **** 0.06
24994 H 19.00189623901513 9.333935943319602 145.56033181974237 H 0.0 **** 0.06
24995 H 19.950069632361206 8.696004577490584 144.19547164461648 H 0.0 **** 0.06
24996 C 74.54121454883062 120.40595999648639 103.8536326699325 C 0.0 **** -0.24
24997 H 73.75366194118627 121.15401930530464 103.93755115057061 H 0.0 **** 0.06
24998 H 75.51396030894392 120.89133047787706 103.93624248834178 H 0.0 **** 0.06
24999 H 74.46528923148753 119.90564990320723 102.88752119639543 H 0.0 **** 0.06
25000 H 74.43199969423142 119.67178982504802 104.65183969756737 H 0.0 **** 0.06
25001 C 21.975612173955426 99.46500992457197 22.12255813842024 C 0.0 **** -0.24
25002 H 22.118300882474955 99.2192733588968 21.069755836596073 H 0.0 **** 0.06
25003 H 21.290367918827286 100.30887846190669 22.208076629051817 H 0.0 **** 0.06
25004 H 22.93435675782851 99.72766140993534 22.56782789797412 H 0.0 **** 0.06
25005 H 21.557321947829735 98.60286728203303 22.64217678711057 H 0.0 **** 0.06
25006 C 164.961970073694 14.424830371786648 119.04924003546418 C 0.0 **** -0.24
25007 H 164.84795095309212 15.344068222690659 119.62370726348593 H 0.0 **** 0.06
25008 H 164.65458226447436 13.575322164977784 119.65856975545103 H 0.0 **** 0.06
25009 H 166.0060251587381 14.306033080161157 118.75830466876172 H 0.0 **** 0.06
25010 H 164.33987531379336 14.476284132844668 118.15635887247427 H 0.0 **** 0.06
25011 C 163.9254086679871 137.8084324644057 75.62155369645359 C 0.0 **** -0.24
25012 H 163.81742049547768 138.2563093381948 74.63395254628296 H 0.0 **** 0.06
25013 H 163.4448979191056 136.8302887556611 75.63127380090089 H 0.0 **** 0.06
25014 H 163.45415925523935 138.45154863147718 76.36502110022639 H 0.0 **** 0.06
25015 H 164.9835260910142 137.69710116002068 75.85577796994505 H 0.0 **** 0.06
25016 C 83.813555371566 155.37519907062335 4.790727599891753 C 0.0 **** -0.24
25017 H 82.81669492473202 155.20990587472642 4.382900953347082 H 0.0 **** 0.06
25018 H 83.73623645917661 155.9436700555559 5.718758727434299 H 0.0 **** 0.06
25019 H 84.41280184853946 155.9331653122852 4.071186412963051 H 0.0 **** 0.06
25020 H 84.28813371181747 154.41434419944068 4.992253101474553 H 0.0 **** 0.06
25021 C 21.659909758693857 73.13921268972658 125.23402050695526 C 0.0 **** -0.24
25022 H 22.080923200482687 72.67675926323184 124.34222196009318 H 0.0 **** 0.06
25023 H 20.59897585100134 73.33515337589456 125.07571478357457 H 0.0 **** 0.06
25024 H 22.17720833996674 74.07822800984141 125.43435929497954 H 0.0 **** 0.06
25025 H 21.784141586307612 72.46837322677636 126.08458742137111 H 0.0 **** 0.06
25026 C 137.3607708828634 54.854636231990796 103.8926301095027 C 0.0 **** -0.24
25027 H 137.23165451700334 53.78154046734956 103.7562351210658 H 0.0 **** 0.06
25028 H 136.91033709838246 55.38351375888627 103.05275443459067 H 0.0 **** 0.06
25029 H 138.4241988106117 55.08953244785849 103.94222856514847 H 0.0 **** 0.06
25030 H 136.8768931054562 55.163958253868884 104.81930231720577 H 0.0 **** 0.06
25031 C 159.31820208433874 88.16121036413293 119.8699120579428 C 0.0 **** -0.24
25032 H 158.74163758940435 87.61498400004982 120.61644827774953 H 0.0 **** 0.06
25033 H 159.01779136779513 87.83985058446414 118.8728922670341 H 0.0 **** 0.06
25034 H 160.38011547474304 87.9610831793189 120.01220486228058 H 0.0 **** 0.06
25035 H 159.13253364099276 89.23008253933286 119.9795601853634 H 0.0 **** 0.06
25036 C 164.3689672987329 81.6834520209095 1.7249688335013431 C 0.0 **** -0.24
25037 H 164.36187395561586 81.11001659620352 2.6513746060253567 H 0.0 **** 0.06
25038 H 164.94096782666813 82.60046345803387 1.8698709827599842 H 0.0 **** 0.06
25039 H 163.3460018079342 81.93507074636307 1.4455769956662792 H 0.0 **** 0.06
25040 H 164.8266757181537 81.09018389260528 0.934132515560151 H 0.0 **** 0.06
25041 C 23.868957171408432 17.253500988259702 169.60893786385702 C 0.0 **** -0.24
25042 H 24.77702767109792 17.225141731352124 169.00683994822168 H 0.0 **** 0.06
25043 H 24.041403867848757 17.86163697645469 170.4980964546171 H 0.0 **** 0.06
25044 H 23.59869917187836 16.240333230010037 169.90800126359647 H 0.0 **** 0.06
25045 H 23.05867238775341 17.687671769077667 169.02343937444562 H 0.0 **** 0.06
25046 C 54.200369095870855 78.27468021420715 98.02077187936354 C 0.0 **** -0.24
25047 H 54.93106702140943 79.07775581923228 97.92584405148486 H 0.0 **** 0.06
25048 H 53.927019460018 78.15487257070929 99.0689833476751 H 0.0 **** 0.06
25049 H 54.63102319890521 77.34579734554981 97.64861491229945 H 0.0 **** 0.06
25050 H 53.31232929714514 78.52229265307939 97.43973783135584 H 0.0 **** 0.06
25051 C 38.278867693203395 34.823441172826136 35.47971815486676 C 0.0 **** -0.24
25052 H 38.665897559706806 35.42468478366533 36.302258841448094 H 0.0 **** 0.06
25053 H 39.03559566253402 34.103122733197324 35.167554200451804 H 0.0 **** 0.06
25054 H 38.02769723564478 35.474133690469785 34.641288747330194 H 0.0 **** 0.06
25055 H 37.384925530287646 34.29217726528577 35.80757220188188 H 0.0 **** 0.06
25056 C 56.124646939200204 119.76795630132392 60.63565958396711 C 0.0 **** -0.24
25057 H 56.22506677428254 120.85260268979661 60.61309358412606 H 0.0 **** 0.06
25058 H 57.10032647297328 119.31710719512805 60.82234587354104 H 0.0 **** 0.06
25059 H 55.73912063811309 119.41816938964757 59.678266896468756 H 0.0 **** 0.06
25060 H 55.435228630693814 119.48439526237823 61.430142236212944 H 0.0 **** 0.06
25061 C 108.01127808485109 31.735645247878097 156.94036961554372 C 0.0 **** -0.24
25062 H 107.20310494988547 31.787276122962226 157.66873324174801 H 0.0 **** 0.06
25063 H 108.75093807852164 32.50584901985792 157.16364407879757 H 0.0 **** 0.06
25064 H 107.61019178178083 31.89552735162289 155.93946968095443 H 0.0 **** 0.06
25065 H 108.48256304942117 30.754169072364448 156.98994962566672 H 0.0 **** 0.06
25066 C 38.89866513506678 119.1589770783302 10.564296269869558 C 0.0 **** -0.24
25067 H 38.75785300945245 120.15639263662888 10.148179307406501 H 0.0 **** 0.06
25068 H 38.020900018908804 118.88044901836702 11.146326913017987 H 0.0 **** 0.06
25069 H 39.778416606057476 119.15497705108743 11.208458172665942 H 0.0 **** 0.06
25070 H 39.04018794642863 118.44440714604329 9.75342988636897 H 0.0 **** 0.06
25071 C 35.543788639933496 41.176718454236266 17.86042666609336 C 0.0 **** -0.24
25072 H 36.44641927184699 41.252964014740655 18.465814733749795 H 0.0 **** 0.06
25073 H 34.667283715579316 41.26359294457367 18.502681390501408 H 0.0 **** 0.06
25074 H 35.52832332974444 40.21267125177627 17.351128103352238 H 0.0 **** 0.06
25075 H 35.53370848970576 41.978519247416045 17.121133690471368 H 0.0 **** 0.06
25076 C 1.4993026284721793 162.18404615030084 146.73583060843998 C 0.0 **** -0.24
25077 H 1.394567288987929 163.2452321844654 146.51251499651403 H 0.0 **** 0.06
25078 H 2.271574342626792 161.7531028579027 146.0984677054502 H 0.0 **** 0.06
25079 H 0.5513154249289016 161.67916974249295 146.54906800573943 H 0.0 **** 0.06
25080 H 1.7775089579772327 162.05838331721029 147.7813033352822 H 0.0 **** 0.06
25081 C 103.97298110894579 102.4437752263479 71.20907243225807 C 0.0 **** -0.24
25082 H 104.59888776687256 101.86084502446408 70.53312241138099 H 0.0 **** 0.06
25083 H 103.38033351984467 101.76903152873896 71.82800054118468 H 0.0 **** 0.06
25084 H 103.30763829827785 103.08179572934566 70.62650140993463 H 0.0 **** 0.06
25085 H 104.60410726151326 103.06292657248994 71.84569362503154 H 0.0 **** 0.06
25086 C 6.138323624450834 11.319563814063827 110.93816854435778 C 0.0 **** -0.24
25087 H 6.534657192809846 11.865602164220718 110.0826447390661 H 0.0 **** 0.06
25088 H 6.928606239268618 10.708663409748226 111.37656256910458 H 0.0 **** 0.06
25089 H 5.320654685852958 10.677455218391515 110.61178192697031 H 0.0 **** 0.06
25090 H 5.771585201346511 12.0265800948589 111.68203014537215 H 0.0 **** 0.06
25091 C 103.20812014786094 58.59858892287231 87.80663794220762 C 0.0 **** -0.24
25092 H 104.01155785547905 57.87287651661346 87.68425938315914 H 0.0 **** 0.06
25093 H 102.27933010618668 58.17963546622363 87.41820227021239 H 0.0 **** 0.06
25094 H 103.45394181349974 59.50864455694209 87.25926910812828 H 0.0 **** 0.06
25095 H 103.08731557443912 58.831053293586066 88.86428898714298 H 0.0 **** 0.06
25096 C 88.54394626044879 55.61085815929938 145.597207401739 C 0.0 **** -0.24
25097 H 88.32530723422208 55.499038149297704 146.65938321504458 H 0.0 **** 0.06
25098 H 88.15611027537543 54.74831714282013 145.0545717510554 H 0.0 **** 0.06
25099 H 89.62219824193083 55.676666395366325 145.45424200098 H 0.0 **** 0.06
25100 H 88.07188968480011 56.51882277097786 145.22277180004238 H 0.0 **** 0.06
25101 C 151.62306422305295 162.96697813349783 158.6180127238084 C 0.0 **** -0.24
25102 H 151.1038302344117 163.05122602572303 157.66388562871015 H 0.0 **** 0.06
25103 H 152.69504163751492 163.08553532973104 158.4604919430283 H 0.0 **** 0.06
25104 H 151.4263452062758 161.98734079652925 159.0537815920095 H 0.0 **** 0.06
25105 H 151.26714391141581 163.74389610621154 159.29529952087123 H 0.0 **** 0.06
25106 C 116.3796679083205 140.23804895429151 140.70747037675122 C 0.0 **** -0.24
25107 H 115.44429345580005 140.78408980896393 140.58643652462604 H 0.0 **** 0.06
25108 H 116.37718247790573 139.36361212741414 140.05636035757038 H 0.0 **** 0.06
25109 H 116.48184015983773 139.91919656059954 141.74482719589483 H 0.0 **** 0.06
25110 H 117.21430629188953 140.88650696550604 140.44291767201463 H 0.0 **** 0.06
25111 C 6.6362781259278165 169.98435255324702 100.33382622157507 C 0.0 **** -0.24
25112 H 7.103420390147768 170.55293580349488 101.13700075772357 H 0.0 **** 0.06
25113 H 7.122801141824816 169.01244557475977 100.24608005095374 H 0.0 **** 0.06
25114 H 6.740912952024814 170.5287458611371 99.3947385285903 H 0.0 **** 0.06
25115 H 5.5780944352082855 169.84312621259008 100.555764515269 H 0.0 **** 0.06
25116 C 130.01033611946062 151.04794433855085 145.51735304640894 C 0.0 **** -0.24
25117 H 130.51384231184616 151.2058010799392 144.56341543958612 H 0.0 **** 0.06
25118 H 129.5440191175168 150.06250104511733 145.52414774529834 H 0.0 **** 0.06
25119 H 129.24558223335842 151.81283638732336 145.6540675164114 H 0.0 **** 0.06
25120 H 130.7376220661317 151.11271035695677 146.326504264059 H 0.0 **** 0.06
25121 C 77.66317967491275 131.8344808514729 123.66403774414007 C 0.0 **** -0.24
25122 H 77.64981026891007 131.64291243794793 124.73723343998 H 0.0 **** 0.06
25123 H 76.99171327622571 132.66216874996582 123.43489845779627 H 0.0 **** 0.06
25124 H 77.33415341438575 130.94196095274876 123.13154159987684 H 0.0 **** 0.06
25125 H 78.67541971247809 132.09067765316362 123.35400316173275 H 0.0 **** 0.06
25126 C 139.38027114088788 64.9154811494849 166.48649581397012 C 0.0 **** -0.24
25127 H 139.24966460537985 65.99751212126533 166.4941173987202 H 0.0 **** 0.06
25128 H 138.4181544648593 64.43418521869846 166.31032566708524 H 0.0 **** 0.06
25129 H 139.7784550864274 64.59164755232756 167.44894299545842 H 0.0 **** 0.06
25130 H 140.0762548988529 64.63847404091979 165.6943008429313 H 0.0 **** 0.06
25131 C 65.6743903555004 77.76530597264694 48.934343909761424 C 0.0 **** -0.24
25132 H 66.53713626434046 77.58520903288176 49.575266493678555 H 0.0 **** 0.06
25133 H 65.90758320486185 78.56023011958831 48.22613852058947 H 0.0 **** 0.06
25134 H 64.82305461274217 78.06213004885839 49.546949090582984 H 0.0 **** 0.06
25135 H 65.42978734005726 76.85365468925941 48.38902153419508 H 0.0 **** 0.06
25136 C 138.78664000602674 64.83533155458498 160.35914365581525 C 0.0 **** -0.24
25137 H 138.72428110285523 63.88446339443013 160.88792743167463 H 0.0 **** 0.06
25138 H 139.3427148205974 65.55166289134317 160.96527767364026 H 0.0 **** 0.06
25139 H 137.78161641550747 65.21667345916428 160.17627992914083 H 0.0 **** 0.06
25140 H 139.29895368380681 64.68998548939476 159.40845317917257 H 0.0 **** 0.06
25141 C 155.3889903076308 58.84899782278238 147.4142242974654 C 0.0 **** -0.24
25142 H 154.5480968197716 58.80232396261056 146.7216241947747 H 0.0 **** 0.06
25143 H 156.1462293196754 58.12480429191024 147.11525612246248 H 0.0 **** 0.06
25144 H 155.04178853735303 58.618107507467116 148.4209455880573 H 0.0 **** 0.06
25145 H 155.8168191527795 59.85148127938085 147.39792741509527 H 0.0 **** 0.06
25146 C 17.76749286651247 80.37264883263971 62.07124111241245 C 0.0 **** -0.24
25147 H 18.497834116962366 79.69546186127576 61.628496664732666 H 0.0 **** 0.06
25148 H 17.910383091327333 81.37475762896008 61.66712909249384 H 0.0 **** 0.06
25149 H 17.900342198692783 80.39367176897689 63.152941753954735 H 0.0 **** 0.06
25150 H 16.761475623343955 80.02512889546414 61.835166128876494 H 0.0 **** 0.06
25151 C 134.91001970345616 80.21283705526571 131.33791541643674 C 0.0 **** -0.24
25152 H 135.9260812011039 79.98060515805224 131.01996959656742 H 0.0 **** 0.06
25153 H 134.2027055819544 79.62656668039345 130.75034074190805 H 0.0 **** 0.06
25154 H 134.71538860852544 81.27454597967903 131.1881453728238 H 0.0 **** 0.06
25155 H 134.79541788689812 79.96870247692519 132.39415635678867 H 0.0 **** 0.06
25156 C 124.01431250435346 42.95667440933491 71.69501834790165 C 0.0 **** -0.24
25157 H 123.27498787607351 42.909830591137165 70.895256543087 H 0.0 **** 0.06
25158 H 125.01606061733804 42.918158226759004 71.26580460431175 H 0.0 **** 0.06
25159 H 123.87491719714589 42.11122099486943 72.36876359559395 H 0.0 **** 0.06
25160 H 123.8919789008902 43.88706912397356 72.24966359763306 H 0.0 **** 0.06
25161 C 109.93904749189528 141.4881920155861 36.1406470633606 C 0.0 **** -0.24
25162 H 110.32829630192288 141.69722932156486 35.14370725500322 H 0.0 **** 0.06
25163 H 108.85729177612399 141.62078575962477 36.14302330205658 H 0.0 **** 0.06
25164 H 110.39133514850272 142.17262983401298 36.85711610273185 H 0.0 **** 0.06
25165 H 110.18051558672033 140.4622056222459 36.416205098873036 H 0.0 **** 0.06
25166 C 7.833813553387017 67.45741051086492 72.5145629444911 C 0.0 **** -0.24
25167 H 6.990131255669269 66.89895339623331 72.10841884283633 H 0.0 **** 0.06
25168 H 7.72291703944083 67.5463277639463 73.59571367308229 H 0.0 **** 0.06
25169 H 7.859985201309172 68.45086183958841 72.069064761145 H 0.0 **** 0.06
25170 H 8.760643063580403 66.93101006381585 72.28620178803897 H 0.0 **** 0.06
25171 C 76.47961838803761 14.854441137538238 77.16231497564318 C 0.0 **** -0.24
25172 H 76.40146319803871 13.95626047149522 77.77470001420113 H 0.0 **** 0.06
25173 H 75.91528472669832 14.715269925731278 76.23997279934703 H 0.0 **** 0.06
25174 H 77.52655020304744 15.040201687128231 76.92369820875865 H 0.0 **** 0.06
25175 H 76.07548257954524 15.705360452984763 77.7120947452408 H 0.0 **** 0.06
25176 C 163.663395245927 45.84216773628401 66.32617811568412 C 0.0 **** -0.24
25177 H 163.0023718725418 46.30553545403738 67.05872685004641 H 0.0 **** 0.06
25178 H 163.44478282279547 44.77594835516692 66.26369582667087 H 0.0 **** 0.06
25179 H 164.70044532485966 45.98269730025113 66.63302790970118 H 0.0 **** 0.06
25180 H 163.5068631182059 46.304402684847076 65.35212796410698 H 0.0 **** 0.06
25181 C 88.81632646965632 103.15806205132412 123.2561278797113 C 0.0 **** -0.24
25182 H 88.88996139948317 102.25875088692251 122.64515775444636 H 0.0 **** 0.06
25183 H 89.7786117855351 103.66853719546367 123.26813806392357 H 0.0 **** 0.06
25184 H 88.53639457619082 102.88449080073536 124.27348037215012 H 0.0 **** 0.06
25185 H 88.05821012760448 103.8201082637751 122.83715100319995 H 0.0 **** 0.06
25186 C 62.417520925882044 154.0149053962766 26.615861409271815 C 0.0 **** -0.24
25187 H 62.60766110716507 152.9450563295255 26.708834020149652 H 0.0 **** 0.06
25188 H 61.501073368223715 154.17270391480912 26.04654365187838 H 0.0 **** 0.06
25189 H 63.252126423578545 154.48815211591375 26.100424373773535 H 0.0 **** 0.06
25190 H 62.308798021822895 154.45090643759565 27.60862552538464 H 0.0 **** 0.06
25191 C 116.93472679621144 100.35551260190431 168.48749341868293 C 0.0 **** -0.24
25192 H 117.37970640957636 101.03109179794882 167.75652139717673 H 0.0 **** 0.06
25193 H 116.74848989574983 99.38757418880809 168.0217045793715 H 0.0 **** 0.06
25194 H 115.99318339450852 100.77501496978505 168.84346533019848 H 0.0 **** 0.06
25195 H 117.61704127200846 100.22984394557767 169.32751454855622 H 0.0 **** 0.06
25196 C 7.167992985354147 13.240498672577225 87.19088180614966 C 0.0 **** -0.24
25197 H 6.914122094546428 13.279675953120972 88.25049395923341 H 0.0 **** 0.06
25198 H 6.361271419020284 12.755333985441737 86.64203783327433 H 0.0 **** 0.06
25199 H 8.090396576283808 12.674072441486828 87.05938218972223 H 0.0 **** 0.06
25200 H 7.3069866967360895 14.253919523543523 86.81369600813666 H 0.0 **** 0.06
25201 C 62.42533196498556 37.09957857407255 70.67721510170679 C 0.0 **** -0.24
25202 H 61.53469491216221 37.32145046726734 70.08891866215947 H 0.0 **** 0.06
25203 H 63.24302670698478 37.74505079068885 70.35580395628978 H 0.0 **** 0.06
25204 H 62.70670402421568 36.055761013506924 70.530948544051 H 0.0 **** 0.06
25205 H 62.216711312745744 37.274028180125754 71.73225771439672 H 0.0 **** 0.06
25206 C 89.36431708308245 47.07314082750153 57.433943609895294 C 0.0 **** -0.24
25207 H 89.21397446277147 46.27949693753949 58.164522561726514 H 0.0 **** 0.06
25208 H 90.31090502385541 47.57649042629188 57.63390528702618 H 0.0 **** 0.06
25209 H 88.54781823881082 47.79238010515279 57.50576778843768 H 0.0 **** 0.06
25210 H 89.38454385683949 46.64556289901432 56.43194004018545 H 0.0 **** 0.06
25211 C 108.62039770693517 67.6922542343642 42.707728597327645 C 0.0 **** -0.24
25212 H 109.35505847961946 67.01629258782914 43.14612865122331 H 0.0 **** 0.06
25213 H 108.12420913699961 67.19583656565791 41.87259169734287 H 0.0 **** 0.06
25214 H 109.12159005999095 68.59179531437435 42.350689035872875 H 0.0 **** 0.06
25215 H 107.88039637352463 67.96194998100695 43.46161282711367 H 0.0 **** 0.06
25216 C 90.79352866356447 106.09463455572353 44.7656786532078 C 0.0 **** -0.24
25217 H 90.36105017166228 106.8437193354701 44.10268203073241 H 0.0 **** 0.06
25218 H 90.04955979303251 105.32555091723947 44.97878643280738 H 0.0 **** 0.06
25219 H 91.1035932433199 106.56917525193859 45.696924743929785 H 0.0 **** 0.06
25220 H 91.65851489508725 105.64008443870472 44.28329687614617 H 0.0 **** 0.06
25221 C 159.47542476283633 5.880155784431281 132.01126675578035 C 0.0 **** -0.24
25222 H 159.38618247309446 6.908824847362041 131.66107969728063 H 0.0 **** 0.06
25223 H 160.4990619905105 5.534356894380892 131.8638789422826 H 0.0 **** 0.06
25224 H 158.79234751316298 5.244950844746853 131.44759013531308 H 0.0 **** 0.06
25225 H 159.22416529463112 5.833390439505308 133.07047204415306 H 0.0 **** 0.06
25226 C 29.66822234675712 71.72250396857076 109.56505442251586 C 0.0 **** -0.24
25227 H 29.53184883270046 72.65853026056605 110.10659687498492 H 0.0 **** 0.06
25228 H 29.11256213681048 70.92911486974498 110.06418730379659 H 0.0 **** 0.06
25229 H 30.72757125808039 71.46614804710491 109.54232293602126 H 0.0 **** 0.06
25230 H 29.30164829015223 71.83698817971599 108.54490491688676 H 0.0 **** 0.06
25231 C 22.972144181500617 154.60704221510633 123.41883991865697 C 0.0 **** -0.24
25232 H 22.54532636712632 154.19027897897075 124.33195447137854 H 0.0 **** 0.06
25233 H 22.588449239174025 154.06184744701432 122.55699073399927 H 0.0 **** 0.06
25234 H 24.05761181693161 154.5177752327764 123.45268637216157 H 0.0 **** 0.06
25235 H 22.696755564016144 155.6587214126444 123.33648595613724 H 0.0 **** 0.06
25236 C 152.95484268539732 92.73097590337301 102.46049945611793 C 0.0 **** -0.24
25237 H 152.35736284489388 92.10839818410972 103.12599550496094 H 0.0 **** 0.06
25238 H 153.7306876262218 92.12199765423554 101.99377750978505 H 0.0 **** 0.06
25239 H 153.4190224593753 93.53326556391818 103.03344151535788 H 0.0 **** 0.06
25240 H 152.31461802133612 93.1576056002969 101.689598935442 H 0.0 **** 0.06
25241 C 87.45991664465072 164.60220851229184 25.16969702034737 C 0.0 **** -0.24
25242 H 87.98644469241617 164.1706456469395 24.318608373038813 H 0.0 **** 0.06
25243 H 86.87852269869154 165.4634947765773 24.83774176834234 H 0.0 **** 0.06
25244 H 88.18322566998171 164.92008315106568 25.92074292983628 H 0.0 **** 0.06
25245 H 86.79207468285404 163.85583880179828 25.59966277492947 H 0.0 **** 0.06
25246 C 163.67063422803284 71.6604506776144 76.30879233532238 C 0.0 **** -0.24
25247 H 162.99753228166378 70.8067669840826 76.23639014083022 H 0.0 **** 0.06
25248 H 164.63524455471884 71.32992647641346 76.69455504359229 H 0.0 **** 0.06
25249 H 163.2450638972148 72.40321321902746 76.98353738731765 H 0.0 **** 0.06
25250 H 163.80535748059972 72.10103315813778 75.32159130588303 H 0.0 **** 0.06
25251 C 136.1580271533481 161.5902097590813 95.65868785577032 C 0.0 **** -0.24
25252 H 135.39142822452493 162.23464126050794 95.22842478853443 H 0.0 **** 0.06
25253 H 135.69166302108425 160.6932710233272 96.06742323738365 H 0.0 **** 0.06
25254 H 136.67752851634935 162.12388577749778 96.45417915638049 H 0.0 **** 0.06
25255 H 136.8718397955289 161.30793488819648 94.88391586827831 H 0.0 **** 0.06
25256 C 141.95218975780193 58.10572890018783 131.8033427718219 C 0.0 **** -0.24
25257 H 141.34104635958903 57.33261720875747 131.33749274495378 H 0.0 **** 0.06
25258 H 141.30441666664672 58.8406704237118 132.28266959510447 H 0.0 **** 0.06
25259 H 142.5591932748906 58.59586054010407 131.0423303652316 H 0.0 **** 0.06
25260 H 142.60272636311743 57.652092817975955 132.55142741233487 H 0.0 **** 0.06
25261 C 101.55605982185648 70.23493380594661 2.2796856247847472 C 0.0 **** -0.24
25262 H 102.02383110613431 69.44064675951877 1.6973040317175219 H 0.0 **** 0.06
25263 H 100.83882048604738 70.76859443568688 1.6561054360577145 H 0.0 **** 0.06
25264 H 102.32181491963826 70.92776780989806 2.6285672073407227 H 0.0 **** 0.06
25265 H 101.04084774956021 69.80052601213136 3.136826567085336 H 0.0 **** 0.06
25266 C 165.42158734543835 160.18801566519846 147.4661384271028 C 0.0 **** -0.24
25267 H 164.72098102688193 159.36339177322182 147.33742794135657 H 0.0 **** 0.06
25268 H 165.99090356982563 160.32653232263544 146.54741249588812 H 0.0 **** 0.06
25269 H 166.1026621739485 159.9615621827757 148.28656641742313 H 0.0 **** 0.06
25270 H 164.86988217300492 161.10109367938412 147.69293606274775 H 0.0 **** 0.06
25271 C 102.41537520646003 154.53152914681033 55.83817640865577 C 0.0 **** -0.24
25272 H 102.97339204581979 154.86996139247879 56.71126060258608 H 0.0 **** 0.06
25273 H 103.07224837641894 154.52479825672594 54.96821863625756 H 0.0 **** 0.06
25274 H 101.57950753302867 155.2082132616686 55.65750251064824 H 0.0 **** 0.06
25275 H 102.0368986850201 153.52552393319465 56.01553249124591 H 0.0 **** 0.06
25276 C 57.27698830816564 23.184878306404123 96.43961444056629 C 0.0 **** -0.24
25277 H 57.84492230847519 22.28183460823154 96.66509006477568 H 0.0 **** 0.06
25278 H 56.21250436461838 22.947477949350052 96.41507376299504 H 0.0 **** 0.06
25279 H 57.585121910691385 23.575456990852864 95.47017484102182 H 0.0 **** 0.06
25280 H 57.465024245732366 23.93319921191572 97.20969073597237 H 0.0 **** 0.06
25281 C 127.69108877444091 160.9846794177002 40.14272699032847 C 0.0 **** -0.24
25282 H 127.55771753974764 160.48883503592756 41.10403060423573 H 0.0 **** 0.06
25283 H 127.96225211783059 160.245723301126 39.387441257524245 H 0.0 **** 0.06
25284 H 128.48290227410365 161.7294729685986 40.223591919303004 H 0.0 **** 0.06
25285 H 126.76014081665116 161.47402786391336 39.854969790220764 H 0.0 **** 0.06
25286 C 117.01137902876678 139.97785027137388 16.848805622674575 C 0.0 **** -0.24
25287 H 116.6266608798636 138.96244244067628 16.94892103458462 H 0.0 **** 0.06
25288 H 116.25410464742191 140.6078672817306 16.380156162472495 H 0.0 **** 0.06
25289 H 117.90794354932206 139.96681724745235 16.22981572790149 H 0.0 **** 0.06
25290 H 117.25459422101326 140.37358271980884 17.83417882398902 H 0.0 **** 0.06
25291 C 126.03868827174713 42.073898879714505 91.04738154124797 C 0.0 **** -0.24
25292 H 127.04049448742933 42.22034260037445 91.45066520897284 H 0.0 **** 0.06
25293 H 125.74535865015892 42.95486734797025 90.47642140499184 H 0.0 **** 0.06
25294 H 125.33633198076083 41.92192252164479 91.86731021397912 H 0.0 **** 0.06
25295 H 126.03258490332618 41.19898061677432 90.39730464767862 H 0.0 **** 0.06
25296 C 139.3098260943544 77.63532932827198 112.68084791487593 C 0.0 **** -0.24
25297 H 138.30066583910337 77.7724846043892 112.29228235132848 H 0.0 **** 0.06
25298 H 139.25739375475527 77.22191000247838 113.68855696260954 H 0.0 **** 0.06
25299 H 139.82166731845473 78.59710010064931 112.70873551473574 H 0.0 **** 0.06
25300 H 139.85789586673548 76.95018008463302 112.03402782713903 H 0.0 **** 0.06
25301 C 108.51601687579722 142.14398294825745 80.63125657602257 C 0.0 **** -0.24
25302 H 108.13057078302506 143.14982072070205 80.46148644326456 H 0.0 **** 0.06
25303 H 108.1313489405627 141.4731967755212 79.86251559430167 H 0.0 **** 0.06
25304 H 108.19638424885713 141.7948679755928 81.61345610926523 H 0.0 **** 0.06
25305 H 109.60559461430924 142.16094649027616 80.5883169816936 H 0.0 **** 0.06
25306 C 80.98082944644172 131.03243741327384 142.78407687876893 C 0.0 **** -0.24
25307 H 80.70886134290656 131.19230816402893 143.82713337852533 H 0.0 **** 0.06
25308 H 81.28173844435372 129.99448578783876 142.64269308544868 H 0.0 **** 0.06
25309 H 81.80885057519305 131.69080295374323 142.520245443252 H 0.0 **** 0.06
25310 H 80.12496680440437 131.25347535497377 142.14766466708767 H 0.0 **** 0.06
25311 C 17.121763897839877 6.358263319895279 80.64080372357043 C 0.0 **** -0.24
25312 H 17.42609874645909 6.11455421109477 79.62298971736921 H 0.0 **** 0.06
25313 H 17.44547018948476 7.370637861184818 80.88384739913441 H 0.0 **** 0.06
25314 H 17.577806834865363 5.653421023813905 81.33450344496113 H 0.0 **** 0.06
25315 H 16.035759524091034 6.296199104279168 80.72008019277933 H 0.0 **** 0.06
25316 C 126.96437242364772 76.97753689954129 134.95475389679493 C 0.0 **** -0.24
25317 H 127.6703963901549 77.47637588777066 134.29084350590568 H 0.0 **** 0.06
25318 H 125.97266366740536 77.40977300484766 134.82078419297844 H 0.0 **** 0.06
25319 H 127.2828101212504 77.11022698780165 135.98904059619514 H 0.0 **** 0.06
25320 H 126.93278651558938 75.91370921010743 134.71914369658592 H 0.0 **** 0.06
25321 C 125.61637679883785 78.51559427570585 86.00846054709211 C 0.0 **** -0.24
25322 H 125.06613490458986 77.62369688420425 86.30889206531549 H 0.0 **** 0.06
25323 H 125.9483878128649 79.05504554167152 86.89559932285874 H 0.0 **** 0.06
25324 H 124.96838175459709 79.1588591173857 85.41316066452316 H 0.0 **** 0.06
25325 H 126.48254530656081 78.22396877932792 85.4146585049167 H 0.0 **** 0.06
25326 C 39.252689179316945 85.54435414032122 7.9524681412225675 C 0.0 **** -0.24
25327 H 40.1311648275601 86.1830600929307 7.8678785984483 H 0.0 **** 0.06
25328 H 38.430746396573085 86.11429761748514 8.38692609065697 H 0.0 **** 0.06
25329 H 39.48278283666258 84.692554213172 8.592358736691523 H 0.0 **** 0.06
25330 H 38.965155030895744 85.18858325198653 6.962822553782985 H 0.0 **** 0.06
25331 C 60.533963070686866 72.5171629846439 87.4554277222295 C 0.0 **** -0.24
25332 H 59.86343869860593 71.76311526643207 87.04495086484036 H 0.0 **** 0.06
25333 H 60.60203615879004 72.39375001391215 88.53649640252951 H 0.0 **** 0.06
25334 H 60.14620131928723 73.51017734910499 87.22706289419625 H 0.0 **** 0.06
25335 H 61.52364191520621 72.4029115892244 87.01333770376334 H 0.0 **** 0.06
25336 C 139.17181447445552 50.44583725376843 35.64048624610405 C 0.0 **** -0.24
25337 H 139.98181884738392 50.68193122677454 34.95068792437303 H 0.0 **** 0.06
25338 H 138.58036128410453 49.62406266562412 35.23758201798273 H 0.0 **** 0.06
25339 H 138.53746128121708 51.32248708558318 35.76943688827214 H 0.0 **** 0.06
25340 H 139.58925092885352 50.154409859771505 36.604582756472155 H 0.0 **** 0.06
25341 C 128.32932792260922 22.028223002804253 57.30386131046322 C 0.0 **** -0.24
25342 H 129.22645521171728 21.410533836799203 57.33394259108579 H 0.0 **** 0.06
25343 H 127.55311085041737 21.513864854598467 56.73799479411994 H 0.0 **** 0.06
25344 H 128.55948068427648 22.979480833428823 56.82340585190525 H 0.0 **** 0.06
25345 H 127.97910929437782 22.21013748483969 58.32024865683533 H 0.0 **** 0.06
25346 C 44.63309320468073 152.45291401695914 116.70485477693649 C 0.0 **** -0.24
25347 H 43.99093167978401 151.9731520187791 117.44422019189426 H 0.0 **** 0.06
25348 H 44.574749784907794 151.90557916573147 115.76397710444871 H 0.0 **** 0.06
25349 H 45.66281533193228 152.45176740867646 117.06292910350808 H 0.0 **** 0.06
25350 H 44.30451418352288 153.4803130352871 116.54966374981859 H 0.0 **** 0.06
25351 C 98.26620864558942 95.19193010715367 129.27433066189292 C 0.0 **** -0.24
25352 H 99.00090806514552 95.54171178617915 128.5487579650177 H 0.0 **** 0.06
25353 H 97.31191440593349 95.02524820626795 128.77465693436642 H 0.0 **** 0.06
25354 H 98.14168385244608 95.94357690576791 130.05504501675168 H 0.0 **** 0.06
25355 H 98.61194246799329 94.25933281851184 129.72052861520027 H 0.0 **** 0.06
25356 C 119.11638363638127 85.70900944777031 50.92805447112919 C 0.0 **** -0.24
25357 H 118.43460342235079 86.53340352932506 51.13475303702684 H 0.0 **** 0.06
25358 H 118.54077934386083 84.81006735201613 50.702169417934925 H 0.0 **** 0.06
25359 H 119.7436582493379 85.52869615705887 51.800269366805736 H 0.0 **** 0.06
25360 H 119.74441761640327 85.96222143452167 50.07404089479161 H 0.0 **** 0.06
25361 C 151.11320001271878 74.26899916938348 83.16979493190385 C 0.0 **** -0.24
25362 H 151.77299205004795 74.51861226763435 82.33931137863824 H 0.0 **** 0.06
25363 H 150.60175951232145 75.16950106029016 83.51130653061237 H 0.0 **** 0.06
25364 H 151.70088588051777 73.85336685373153 83.98820636813706 H 0.0 **** 0.06
25365 H 150.37760076560568 73.53463333354463 82.84202711127512 H 0.0 **** 0.06
25366 C 167.04297388968055 28.34103550313978 118.5207373433706 C 0.0 **** -0.24
25367 H 166.03642746907002 27.930610639102213 118.44142837302314 H 0.0 **** 0.06
25368 H 167.57715524280314 27.84105499449676 119.3287818734209 H 0.0 **** 0.06
25369 H 166.98424588461342 29.409578855141604 118.72893274352978 H 0.0 **** 0.06
25370 H 167.5745607512408 28.182113929428013 117.58177112138566 H 0.0 **** 0.06
25371 C 13.435330683710383 149.67323570586447 76.61031612236275 C 0.0 **** -0.24
25372 H 13.075875017272828 150.21904776254766 75.73823356036159 H 0.0 **** 0.06
25373 H 14.183139871780838 148.94293076026824 76.299230403936 H 0.0 **** 0.06
25374 H 12.600033980251233 149.1586536878687 77.08606707607791 H 0.0 **** 0.06
25375 H 13.881391703302803 150.3718472999384 77.31764883854025 H 0.0 **** 0.06
25376 C 3.394466607832271 113.0744948611673 46.26002187442789 C 0.0 **** -0.24
25377 H 4.085315306254387 112.47363430857243 45.66797299343534 H 0.0 **** 0.06
25378 H 2.5181396857956315 112.47768630680497 46.511517083068114 H 0.0 **** 0.06
25379 H 3.0882638956421147 113.9474091333675 45.684273029029015 H 0.0 **** 0.06
25380 H 3.889502208527034 113.39760263945738 47.17614049134397 H 0.0 **** 0.06
25381 C 104.53274090453326 142.0363721233984 98.64554348769201 C 0.0 **** -0.24
25382 H 105.01678480393491 141.96859069685158 99.61961399623684 H 0.0 **** 0.06
25383 H 105.20171881917409 141.64205130914803 97.87941172188229 H 0.0 **** 0.06
25384 H 104.30276133542642 143.07861662363425 98.42602136206665 H 0.0 **** 0.06
25385 H 103.61059685942993 141.45516007385083 98.65690586821017 H 0.0 **** 0.06
25386 C 101.33296126361205 9.738749446833026 162.43630320070562 C 0.0 **** -0.24
25387 H 101.11853330699941 10.623992293879837 161.83691354402916 H 0.0 **** 0.06
25388 H 102.37092598107787 9.440390871005945 162.28498028890556 H 0.0 **** 0.06
25389 H 100.67260580769045 8.925623980471812 162.13272311384435 H 0.0 **** 0.06
25390 H 101.1699426246893 9.965785430849166 163.48943744925893 H 0.0 **** 0.06
25391 C 132.9005470386831 6.076220652632578 47.89218633134335 C 0.0 **** -0.24
25392 H 132.60118200709206 5.766001235951627 48.89308825662815 H 0.0 **** 0.06
25393 H 133.36801097431072 7.060120355731101 47.94115624696896 H 0.0 **** 0.06
25394 H 132.02228270857444 6.121651415505362 47.24890336657805 H 0.0 **** 0.06
25395 H 133.6115900381614 5.355734673315602 47.48618013532918 H 0.0 **** 0.06
25396 C 16.544780421528458 70.945642089406 126.52847149056257 C 0.0 **** -0.24
25397 H 16.65450053839669 71.73220174318233 125.78141887423098 H 0.0 **** 0.06
25398 H 17.037199784845853 71.25109629884207 127.45160099244632 H 0.0 **** 0.06
25399 H 17.00218410537613 70.02810500728958 126.15817463528813 H 0.0 **** 0.06
25400 H 15.485469835364455 70.77290864623721 126.72006335075028 H 0.0 **** 0.06
25401 C 45.49971229646201 89.33842845811034 67.51777572603264 C 0.0 **** -0.24
25402 H 46.5797889811724 89.25172132193916 67.62891692522429 H 0.0 **** 0.06
25403 H 45.23268868384912 90.3832445947757 67.354127135575 H 0.0 **** 0.06
25404 H 45.010955433300765 88.97610665958155 68.42300214507719 H 0.0 **** 0.06
25405 H 45.17304036068953 88.74097372782398 66.66581533036853 H 0.0 **** 0.06
25406 C 129.1055793253904 128.05439464686327 9.762873961659409 C 0.0 **** -0.24
25407 H 129.56336144974816 127.06512426410362 9.758772109111533 H 0.0 **** 0.06
25408 H 129.73453238010646 128.74689495832828 9.204210794266828 H 0.0 **** 0.06
25409 H 129.00349094510187 128.40234302281155 10.79064828861027 H 0.0 **** 0.06
25410 H 128.12044202149107 128.00015630572526 9.298493829319568 H 0.0 **** 0.06
25411 C 129.23781401822595 6.0342037543438565 116.03458505091544 C 0.0 **** -0.24
25412 H 129.0598092889656 6.836881557231088 116.74969750744339 H 0.0 **** 0.06
25413 H 129.49604564204316 6.462798101791499 115.06548467492269 H 0.0 **** 0.06
25414 H 128.33572247693428 5.429387610647744 115.93502849895316 H 0.0 **** 0.06
25415 H 130.05808485871256 5.409152528024279 116.38626227909327 H 0.0 **** 0.06
25416 C 110.60882479987725 48.41118271880376 35.33943002519487 C 0.0 **** -0.24
25417 H 111.46484569206368 47.75125189418442 35.20432754541446 H 0.0 **** 0.06
25418 H 109.80766004683423 48.11016169794864 34.66384169586331 H 0.0 **** 0.06
25419 H 110.90279448700562 49.438059858212526 35.120495402829704 H 0.0 **** 0.06
25420 H 110.25873155770992 48.34537853184867 36.36967112371758 H 0.0 **** 0.06
25421 C 16.392921942272892 106.10892939164987 35.093256207809304 C 0.0 **** -0.24
25422 H 16.30435888910472 105.17518939780214 35.64709404361497 H 0.0 **** 0.06
25423 H 17.052123045572785 106.79001365933595 35.63078973245277 H 0.0 **** 0.06
25424 H 15.408009724775638 106.56374152326012 34.98847535214213 H 0.0 **** 0.06
25425 H 16.806225556328968 105.90716909598896 34.10445181709974 H 0.0 **** 0.06
25426 C 32.68523546236449 2.91661974030189 1.625079467926163 C 0.0 **** -0.24
25427 H 32.66413356837978 3.0292012505135304 2.7093314293989366 H 0.0 **** 0.06
25428 H 31.66976323760261 2.781259885965447 1.2540416939875811 H 0.0 **** 0.06
25429 H 33.28766968371454 2.0468303226315214 1.362708416991083 H 0.0 **** 0.06
25430 H 33.120913629063665 3.8091862203215214 1.1758592501695588 H 0.0 **** 0.06
25431 C 27.970054842925038 133.0484806089308 154.35961979187013 C 0.0 **** -0.24
25432 H 27.784660946404642 132.66409507300153 153.355892692753 H 0.0 **** 0.06
25433 H 28.76979202920529 132.4737950871639 154.82670240379744 H 0.0 **** 0.06
25434 H 27.061880367952256 132.9591996141789 154.9551575260742 H 0.0 **** 0.06
25435 H 28.263754870760238 134.09653795341683 154.2979165326826 H 0.0 **** 0.06
25436 C 9.969606351465416 141.04142211753134 20.098768018616973 C 0.0 **** -0.24
25437 H 9.519273250931747 140.55523156257473 19.23256938876171 H 0.0 **** 0.06
25438 H 10.202473199285123 140.29234559316626 20.855385867183685 H 0.0 **** 0.06
25439 H 9.271518722923702 141.77001960357876 20.50953500599296 H 0.0 **** 0.06
25440 H 10.886028854509107 141.54788763095323 19.794088359979803 H 0.0 **** 0.06
25441 C 124.51167203350118 129.31353217280935 87.90340105827316 C 0.0 **** -0.24
25442 H 124.99785626705707 129.5611272314565 86.95912578199106 H 0.0 **** 0.06
25443 H 124.44106015379629 128.23051012546222 88.00313764100225 H 0.0 **** 0.06
25444 H 123.51070789829828 129.74638794377898 87.9196770299788 H 0.0 **** 0.06
25445 H 125.09656601713829 129.71813940422004 88.72929584324423 H 0.0 **** 0.06
25446 C 150.22071267649977 120.24953029414633 143.5678993120339 C 0.0 **** -0.24
25447 H 151.25747035034118 120.14444435104971 143.24879173586964 H 0.0 **** 0.06
25448 H 149.5845856401306 119.61705704991937 142.9493508894804 H 0.0 **** 0.06
25449 H 149.91214097051204 121.28989383460654 143.4612718558231 H 0.0 **** 0.06
25450 H 150.12931845465567 119.94854442030842 144.6110640919452 H 0.0 **** 0.06
25451 C 123.89680092442677 8.0080396437221 25.220564067460487 C 0.0 **** -0.24
25452 H 123.33815521504698 7.100329022808694 24.991488542420655 H 0.0 **** 0.06
25453 H 123.25793204490367 8.87735508100809 25.05884683363061 H 0.0 **** 0.06
25454 H 124.76898927794696 8.071442834440518 24.570258998135927 H 0.0 **** 0.06
25455 H 124.2188930789211 7.982068963098584 26.260878112737828 H 0.0 **** 0.06
25456 C 26.346829117068353 92.87310582383819 75.31283639433401 C 0.0 **** -0.24
25457 H 27.238979446801935 92.63619616224815 75.89323695372762 H 0.0 **** 0.06
25458 H 25.934892100863614 91.95776191936974 74.88931829193396 H 0.0 **** 0.06
25459 H 26.609312518656985 93.5597712828961 74.5073581345634 H 0.0 **** 0.06
25460 H 25.60495521766601 93.3401659834253 75.96103707779167 H 0.0 **** 0.06
25461 C 3.606398931057015 58.56416122271344 115.94576560670319 C 0.0 **** -0.24
25462 H 3.1539948434677285 57.649210635623035 116.32668963632935 H 0.0 **** 0.06
25463 H 4.281055919744347 58.321382188276516 115.12459846055242 H 0.0 **** 0.06
25464 H 4.165668485586025 59.05187120339349 116.74440866559902 H 0.0 **** 0.06
25465 H 2.8252203926331276 59.235048766616046 115.58842798307313 H 0.0 **** 0.06
25466 C 167.97471087455506 49.2786828795233 59.1599030486133 C 0.0 **** -0.24
25467 H 167.6292624047881 49.62578045798023 58.18639249658524 H 0.0 **** 0.06
25468 H 168.2611034595543 50.13570332239493 59.76994767675605 H 0.0 **** 0.06
25469 H 168.83575080523138 48.62304893186038 59.02702125213072 H 0.0 **** 0.06
25470 H 167.17395611622322 48.7307916738082 59.655880073000574 H 0.0 **** 0.06
25471 C 157.4819028888379 137.85574659443697 55.02067107538181 C 0.0 **** -0.24
25472 H 156.84541751805824 137.56835737477167 54.18288647553052 H 0.0 **** 0.06
25473 H 157.24041011608477 138.87391125663856 55.32672362243301 H 0.0 **** 0.06
25474 H 158.5277410658263 137.80485850589415 54.71545781441324 H 0.0 **** 0.06
25475 H 157.31374533021233 137.1748889862743 55.854976254859224 H 0.0 **** 0.06
25476 C 56.429613996112394 99.98947304494106 8.091055841794528 C 0.0 **** -0.24
25477 H 56.98654614958302 100.91684946940302 8.223414136188666 H 0.0 **** 0.06
25478 H 55.58791018122213 100.16468794026059 7.420850186683289 H 0.0 **** 0.06
25479 H 56.0601597226985 99.64621199215361 9.056708231834243 H 0.0 **** 0.06
25480 H 57.08458215517879 99.23131468522746 7.661496994872017 H 0.0 **** 0.06
25481 C 148.64482293750902 154.78843850413952 12.025986257823575 C 0.0 **** -0.24
25482 H 147.90605077718783 154.96532449785582 11.243791110997961 H 0.0 **** 0.06
25483 H 148.23537670978834 155.09832954115038 12.988189747858769 H 0.0 **** 0.06
25484 H 149.54464452389314 155.36435491278323 11.812022333190669 H 0.0 **** 0.06
25485 H 148.89097258571738 153.72773004391703 12.059839807179173 H 0.0 **** 0.06
25486 C 132.83187290014274 74.20106394909479 127.26934778683284 C 0.0 **** -0.24
25487 H 132.50542180232824 73.89449140768616 126.27522044922407 H 0.0 **** 0.06
25488 H 133.7143998352814 73.62768749404077 127.5546982042612 H 0.0 **** 0.06
25489 H 132.031562311336 74.01685841784422 127.98611376743244 H 0.0 **** 0.06
25490 H 133.07414764043455 75.263848754225 127.26082732847547 H 0.0 **** 0.06
25491 C 116.78459857243769 97.30624448964952 54.09902303857834 C 0.0 **** -0.24
25492 H 117.327838684467 96.5529690382549 54.669850917827546 H 0.0 **** 0.06
25493 H 117.41569269006044 97.67397408227731 53.28876295677814 H 0.0 **** 0.06
25494 H 116.51393820016335 98.13434776045915 54.75408801346539 H 0.0 **** 0.06
25495 H 115.87932496973258 96.86267852723694 53.681833407664854 H 0.0 **** 0.06
25496 C 135.4141164767976 95.16447490518766 24.90593781277971 C 0.0 **** -0.24
25497 H 134.40415360301023 95.26784239087351 25.302671150960215 H 0.0 **** 0.06
25498 H 136.0953395682097 94.89357157745752 25.712624663060076 H 0.0 **** 0.06
25499 H 135.7294794299344 96.11033852960122 24.464145519898622 H 0.0 **** 0.06
25500 H 135.4270687672363 94.38584959871594 24.142994127672686 H 0.0 **** 0.06
25501 C 156.59639487209986 81.1556542072376 130.57340440893353 C 0.0 **** -0.24
25502 H 156.47170385106648 82.13437367222467 131.03603117565928 H 0.0 **** 0.06
25503 H 157.46657268090934 80.65859460424518 131.00300601229742 H 0.0 **** 0.06
25504 H 156.7391258906153 81.27600166170647 129.49981067124378 H 0.0 **** 0.06
25505 H 155.70637221670088 80.55220070686325 130.75557677057742 H 0.0 **** 0.06
25506 C 41.63279459967647 87.18799947500476 114.64145296573588 C 0.0 **** -0.24
25507 H 41.36191954886894 86.18000865439964 114.95340385797573 H 0.0 **** 0.06
25508 H 40.742238737118456 87.81660360485459 114.63174240992416 H 0.0 **** 0.06
25509 H 42.065278424557164 87.15572746456607 113.64137924486715 H 0.0 **** 0.06
25510 H 42.36183176031814 87.60126163454107 115.33863758816554 H 0.0 **** 0.06
25511 C 146.30951658165765 97.40000422227854 23.726014745824898 C 0.0 **** -0.24
25512 H 145.7885899424486 96.55807341054503 24.182075194282845 H 0.0 **** 0.06
25513 H 147.36512390101512 97.36329948482208 23.996007610714287 H 0.0 **** 0.06
25514 H 145.87438292295127 98.33240167282958 24.08514127844819 H 0.0 **** 0.06
25515 H 146.20928352502432 97.34581187169829 22.64236596255097 H 0.0 **** 0.06
25516 C 138.21192617273692 67.12562114092148 85.40138584398329 C 0.0 **** -0.24
25517 H 137.87516919206644 67.6360416766588 86.30419691104902 H 0.0 **** 0.06
25518 H 138.8653644039294 66.29753075723534 85.67427035022666 H 0.0 **** 0.06
25519 H 138.75660929951556 67.82721900715066 84.76975074016889 H 0.0 **** 0.06
25520 H 137.34798747636933 66.74323337225309 84.85735301252095 H 0.0 **** 0.06
25521 C 147.04309697168196 47.294689372614286 63.18639418272305 C 0.0 **** -0.24
25522 H 146.95114174590523 46.85409671143998 62.19328766832513 H 0.0 **** 0.06
25523 H 147.40976351947205 46.542056338352964 63.884567764523254 H 0.0 **** 0.06
25524 H 146.0675567029486 47.65208637937397 63.51697059617176 H 0.0 **** 0.06
25525 H 147.74333824522145 48.12897808466545 63.15021854022069 H 0.0 **** 0.06
25526 C 111.37001914420586 143.64376966860772 90.80845446460317 C 0.0 **** -0.24
25527 H 111.66805384039998 143.904706079738 91.82396945537573 H 0.0 **** 0.06
25528 H 112.25079676050325 143.62158984665177 90.16608303506779 H 0.0 **** 0.06
25529 H 110.66666177237096 144.3876367157597 90.43449136086282 H 0.0 **** 0.06
25530 H 110.89562902141765 142.66244066239068 90.8097101029481 H 0.0 **** 0.06
25531 C 82.60469754126392 58.1579631046892 71.0447742289197 C 0.0 **** -0.24
25532 H 81.92694046384788 57.71229163248759 70.31655415715834 H 0.0 **** 0.06
25533 H 83.05336602762851 59.05699207495293 70.6193935146173 H 0.0 **** 0.06
25534 H 83.39006906189326 57.44433161331443 71.29466593726545 H 0.0 **** 0.06
25535 H 82.05048771487898 58.419632247475064 71.94588404439345 H 0.0 **** 0.06
25536 C 112.11189219476879 117.68439366057288 91.38223110805212 C 0.0 **** -0.24
25537 H 112.62076355333289 118.4229847874505 92.00249661837688 H 0.0 **** 0.06
25538 H 112.72643399247778 116.78725874734408 91.30839678344293 H 0.0 **** 0.06
25539 H 111.949081546381 118.09760359467344 90.38722085403388 H 0.0 **** 0.06
25540 H 111.15207316871502 117.43304147529949 91.83236072463575 H 0.0 **** 0.06
25541 C 165.09017375416994 60.677906703371534 99.21359714205755 C 0.0 **** -0.24
25542 H 164.08302895593897 60.419515389929 98.8881429371113 H 0.0 **** 0.06
25543 H 165.68029381544875 59.767844335474464 99.32608275413111 H 0.0 **** 0.06
25544 H 165.04137321226233 61.19974873991602 100.16921190511454 H 0.0 **** 0.06
25545 H 165.55731323496744 61.32471281776927 98.470466089718 H 0.0 **** 0.06
25546 C 84.29175882833854 120.1222299572211 40.20302850896837 C 0.0 **** -0.24
25547 H 84.47098708384006 119.18005443150878 40.72034144851068 H 0.0 **** 0.06
25548 H 84.12832463344628 120.91327180855941 40.93480459100908 H 0.0 **** 0.06
25549 H 83.41126471570281 120.0263610371307 39.56839914626249 H 0.0 **** 0.06
25550 H 85.15835939205047 120.3686521761787 39.58754349197653 H 0.0 **** 0.06
25551 C 62.75243483456535 103.77436953343516 26.954780812691183 C 0.0 **** -0.24
25552 H 63.586187102981725 103.31072877055414 27.48175479181799 H 0.0 **** 0.06
25553 H 62.71955408991249 104.83763300752997 27.19101757357444 H 0.0 **** 0.06
25554 H 61.819411192832206 103.304446212414 27.266987734114252 H 0.0 **** 0.06
25555 H 62.883675601543345 103.64318274417991 25.880762159141284 H 0.0 **** 0.06
25556 C 34.50257827882956 29.559546863634196 2.8016560267640216 C 0.0 **** -0.24
25557 H 34.989047070543506 30.47316407217511 2.461644462332629 H 0.0 **** 0.06
25558 H 35.144024035732116 28.704209882064987 2.58811870149043 H 0.0 **** 0.06
25559 H 33.55178710299384 29.43964828238731 2.283666050198349 H 0.0 **** 0.06
25560 H 34.32481102499929 29.62182461572496 3.875868997589407 H 0.0 **** 0.06
25561 C 48.89945087509547 95.24140902530945 34.65300584021 C 0.0 **** -0.24
25562 H 48.66167939150212 94.46931968526104 35.38494775443269 H 0.0 **** 0.06
25563 H 48.089395458184484 95.97025162108099 34.6181075369073 H 0.0 **** 0.06
25564 H 49.0217361746992 94.78661662792979 33.67101331994863 H 0.0 **** 0.06
25565 H 49.824804027537056 95.74128860208356 34.9410495272287 H 0.0 **** 0.06
25566 C 108.46663047364558 80.21076966003639 78.16632004499007 C 0.0 **** -0.24
25567 H 108.27657564951892 80.1017443806594 79.23400718709229 H 0.0 **** 0.06
25568 H 107.52377332062974 80.14722028934025 77.62107595914705 H 0.0 **** 0.06
25569 H 109.13423776552094 79.41672043268022 77.83299064095661 H 0.0 **** 0.06
25570 H 108.93072181681447 81.17951674192562 77.97734771284212 H 0.0 **** 0.06
25571 C 163.86967408497068 19.528996030730184 51.11961496578806 C 0.0 **** -0.24
25572 H 164.41030917434446 18.730972530083648 50.61121024155159 H 0.0 **** 0.06
25573 H 164.57787524405646 20.27446224253623 51.480646012443 H 0.0 **** 0.06
25574 H 163.3169987776559 19.114062775102695 51.96194955275109 H 0.0 **** 0.06
25575 H 163.17378449115944 19.996869915461502 50.42224997894152 H 0.0 **** 0.06
25576 C 67.43803026298747 86.31096114363972 80.37081745832025 C 0.0 **** -0.24
25577 H 66.61631142823455 86.11252803164545 81.05950654905483 H 0.0 **** 0.06
25578 H 67.6392237825873 87.38222281227796 80.34499483251756 H 0.0 **** 0.06
25579 H 67.16684408533484 85.96712573911829 79.37287485268398 H 0.0 **** 0.06
25580 H 68.32954138544824 85.78118774523563 80.70797955375204 H 0.0 **** 0.06
25581 C 84.93952138431747 7.536917572473101 23.37323936343013 C 0.0 **** -0.24
25582 H 85.8296893728726 7.645690949830168 22.753405112551484 H 0.0 **** 0.06
25583 H 84.23675021597279 8.33702431793651 23.142256579403117 H 0.0 **** 0.06
25584 H 85.22162003863829 7.592248637102756 24.424737824094194 H 0.0 **** 0.06
25585 H 84.4724528607322 6.572987781271365 23.172733701286006 H 0.0 **** 0.06
25586 C 9.423268113379038 122.70672938137514 86.71190326263282 C 0.0 **** -0.24
25587 H 10.090380169939976 123.27904150927625 86.06584322709504 H 0.0 **** 0.06
25588 H 9.966688877373997 122.38267718272266 87.59910967189413 H 0.0 **** 0.06
25589 H 9.056080605826963 121.83442031961309 86.1708742152322 H 0.0 **** 0.06
25590 H 8.580972234335036 123.33169989826729 87.0083146065596 H 0.0 **** 0.06
25591 C 138.81710041359344 99.24713769921854 155.23701176856338 C 0.0 **** -0.24
25592 H 137.81883828488756 99.19972126938839 154.80163308746793 H 0.0 **** 0.06
25593 H 138.76473810497134 98.98708331348084 156.29456749259558 H 0.0 **** 0.06
25594 H 139.21231616482234 100.25781205226826 155.12940099396835 H 0.0 **** 0.06
25595 H 139.47142492268702 98.54477153900277 154.7206781578114 H 0.0 **** 0.06
25596 C 33.82073509121423 78.14882092138448 114.00468759811031 C 0.0 **** -0.24
25597 H 33.20944650367586 77.88510445178122 114.86770443981658 H 0.0 **** 0.06
25598 H 34.39036791514687 79.05186429706036 114.22635699293016 H 0.0 **** 0.06
25599 H 33.17576006340964 78.32731209953141 113.14508579462643 H 0.0 **** 0.06
25600 H 34.506070897020095 77.33150374899724 113.78162115099752 H 0.0 **** 0.06
25601 C 116.03465665762144 90.92611143098108 126.05784688183485 C 0.0 **** -0.24
25602 H 116.28600658225224 91.56110967267449 125.20846144132813 H 0.0 **** 0.06
25603 H 115.67297560302131 91.54527165491787 126.87918094011002 H 0.0 **** 0.06
25604 H 116.92221575046932 90.37945474373629 126.37760386547879 H 0.0 **** 0.06
25605 H 115.25821005220286 90.2192313861924 125.76619564756194 H 0.0 **** 0.06
25606 C 119.52428424322787 60.37237726147167 51.80462397156245 C 0.0 **** -0.24
25607 H 118.63682342827397 60.22239500824506 51.189350190421465 H 0.0 **** 0.06
25608 H 120.21328538471803 61.04143994599555 51.28875601659058 H 0.0 **** 0.06
25609 H 120.01199502002902 59.41305014435413 51.978925084887635 H 0.0 **** 0.06
25610 H 119.23496191414614 60.812831143810115 52.7584725636213 H 0.0 **** 0.06
25611 C 67.31935926019979 42.48688795125952 120.3675190799523 C 0.0 **** -0.24
25612 H 66.37546084444347 41.94509368384621 120.42753522046178 H 0.0 **** 0.06
25613 H 67.992016632521 42.13221419173806 121.14880826121328 H 0.0 **** 0.06
25614 H 67.13523098362612 43.55275362190628 120.5024239978296 H 0.0 **** 0.06
25615 H 67.77391270237328 42.31691617894546 119.39123993719525 H 0.0 **** 0.06
25616 C 167.76560556119603 6.90136005432737 150.9848995960897 C 0.0 **** -0.24
25617 H 166.86799439959228 6.3746418165258945 150.66211597832842 H 0.0 **** 0.06
25618 H 168.48666290475603 6.1843048984265465 151.37703527286655 H 0.0 **** 0.06
25619 H 167.50596741717055 7.619573710963621 151.76223436667468 H 0.0 **** 0.06
25620 H 168.20176783084807 7.428678389834289 150.13540087084107 H 0.0 **** 0.06
25621 C 22.65794181719906 136.54352736699298 79.23354059920186 C 0.0 **** -0.24
25622 H 22.08555117867951 136.0096471972268 78.47442260501651 H 0.0 **** 0.06
25623 H 21.97341992611223 137.0451571950378 79.91903716176074 H 0.0 **** 0.06
25624 H 23.298689000102286 137.2817629651392 78.7525890427705 H 0.0 **** 0.06
25625 H 23.273545198019065 135.8345991241594 79.78826615439709 H 0.0 **** 0.06
25626 C 134.0519604201815 165.7484510006916 47.17577605967824 C 0.0 **** -0.24
25627 H 135.0541982396569 165.76535218555142 46.74838763058813 H 0.0 **** 0.06
25628 H 133.60809119793333 166.74210433723061 47.09998422996199 H 0.0 **** 0.06
25629 H 134.10860989844133 165.4542692304916 48.223678297816264 H 0.0 **** 0.06
25630 H 133.4363569719526 165.0330617343447 46.63022332637351 H 0.0 **** 0.06
25631 C 141.60836763256728 168.57039638055014 104.43219928164655 C 0.0 **** -0.24
25632 H 141.6340811706417 169.399107515855 103.72559344070694 H 0.0 **** 0.06
25633 H 141.83144017559076 167.6405822845408 103.90926662512194 H 0.0 **** 0.06
25634 H 140.61690807937364 168.506339164528 104.88165099251034 H 0.0 **** 0.06
25635 H 142.35104110466312 168.7355565572767 105.21228606824675 H 0.0 **** 0.06
25636 C 151.44510811196494 76.39910148816807 36.50867187284871 C 0.0 **** -0.24
25637 H 151.71495091899718 77.4509369586625 36.6020377209482 H 0.0 **** 0.06
25638 H 152.1229647485002 75.91048611892141 35.80968149344545 H 0.0 **** 0.06
25639 H 150.42208572219596 76.31789073880574 36.14013800201849 H 0.0 **** 0.06
25640 H 151.5181779468044 75.91735907795633 37.48375352951109 H 0.0 **** 0.06
25641 C 10.562920808687338 148.73869240598415 99.19915067144447 C 0.0 **** -0.24
25642 H 11.291876549138912 149.54726854933764 99.13797586819169 H 0.0 **** 0.06
25643 H 11.00618402067088 147.8203183333168 98.81412213532553 H 0.0 **** 0.06
25644 H 9.685595746954213 148.99592558419113 98.60419179744412 H 0.0 **** 0.06
25645 H 10.26791759196292 148.59310339215912 100.23817286440814 H 0.0 **** 0.06
25646 C 160.41985626619118 139.06684786079234 95.18130450592605 C 0.0 **** -0.24
25647 H 159.66552927641573 139.82999994208123 94.98712956779576 H 0.0 **** 0.06
25648 H 161.34949600897676 139.34110838604596 94.68272923998487 H 0.0 **** 0.06
25649 H 160.07187274460074 138.10703437287327 94.79961651838929 H 0.0 **** 0.06
25650 H 160.59047232932392 138.99029527243644 96.25491618225067 H 0.0 **** 0.06
25651 C 5.223918459653987 106.7767535568907 159.53143189845196 C 0.0 **** -0.24
25652 H 5.428884402850201 107.80055376119873 159.84336181264558 H 0.0 **** 0.06
25653 H 4.195208518357617 106.70441996359679 159.1775210191588 H 0.0 **** 0.06
25654 H 5.36419718154238 106.10405636415325 160.37813525862117 H 0.0 **** 0.06
25655 H 5.905941054580666 106.49683606608045 158.72885445644084 H 0.0 **** 0.06
25656 C 128.86359861456938 57.26401122767669 135.8108962626621 C 0.0 **** -0.24
25657 H 128.2041810907261 58.06077790242722 136.15484186373084 H 0.0 **** 0.06
25658 H 128.33537151224436 56.31114228102342 135.85681043811675 H 0.0 **** 0.06
25659 H 129.7452642119906 57.22156774970048 136.45062317193168 H 0.0 **** 0.06
25660 H 129.16743371677865 57.46201707154762 134.78333746539934 H 0.0 **** 0.06
25661 C 111.92933049230805 30.2657383813131 113.83118746258555 C 0.0 **** -0.24
25662 H 111.2943954445426 31.08968247805879 114.15634863170555 H 0.0 **** 0.06
25663 H 112.13668294241685 30.365778125013037 112.76599302809177 H 0.0 **** 0.06
25664 H 111.41882239762441 29.319847202467656 114.01549584943348 H 0.0 **** 0.06
25665 H 112.8664394176987 30.28732700137317 114.38830325306864 H 0.0 **** 0.06
25666 C 148.99863107317222 139.92287522450468 159.79746442012564 C 0.0 **** -0.24
25667 H 148.0639317648937 139.60375762861503 159.3361691205459 H 0.0 **** 0.06
25668 H 149.23427592670922 140.93811276050997 159.47542950758958 H 0.0 **** 0.06
25669 H 149.80094043914278 139.25021195640562 159.49574605952932 H 0.0 **** 0.06
25670 H 148.89368546088934 139.90117794562315 160.88229797345687 H 0.0 **** 0.06
25671 C 157.36989698547504 158.46214463145452 106.21383429339852 C 0.0 **** -0.24
25672 H 158.21189747610595 157.7850541898518 106.35786864469625 H 0.0 **** 0.06
25673 H 157.2372930237432 158.6544989564755 105.14835119335487 H 0.0 **** 0.06
25674 H 157.56652215632474 159.40023567990895 106.73175212361204 H 0.0 **** 0.06
25675 H 156.46516713179813 158.00696074790358 106.61637211723419 H 0.0 **** 0.06
25676 C 10.596016034804677 155.76505753550512 35.62698431568339 C 0.0 **** -0.24
25677 H 10.626974678491365 156.66646818996864 35.014622012659686 H 0.0 **** 0.06
25678 H 11.093872626760515 155.95428928754671 36.57763321162284 H 0.0 **** 0.06
25679 H 11.104276097532079 154.95419737168524 35.104896491036925 H 0.0 **** 0.06
25680 H 9.558729138529202 155.48583865236958 35.808631947636115 H 0.0 **** 0.06
25681 C 97.96098917156962 10.569583741851204 91.42551431193623 C 0.0 **** -0.24
25682 H 98.5068352539814 9.687009520582762 91.09075767364449 H 0.0 **** 0.06
25683 H 97.3999150876943 10.987639372913293 90.58973949386187 H 0.0 **** 0.06
25684 H 98.66589305099902 11.311954768164867 91.79994316743552 H 0.0 **** 0.06
25685 H 97.27165330312235 10.288173831062721 92.22209558861579 H 0.0 **** 0.06
25686 C 129.3512079905662 85.2292069357612 47.93334110344421 C 0.0 **** -0.24
25687 H 128.57831346181095 85.97317240876153 48.124774095677225 H 0.0 **** 0.06
25688 H 128.9252086369572 84.40119662704501 47.36450216694544 H 0.0 **** 0.06
25689 H 129.73967646663365 84.85605201025054 48.88123658566241 H 0.0 **** 0.06
25690 H 130.16043371692658 85.68386443928428 47.362538648131704 H 0.0 **** 0.06
25691 C 150.9380520504697 91.7271903823916 147.26492484041023 C 0.0 **** -0.24
25692 H 151.3668985192467 90.72757115777938 147.32040677091953 H 0.0 **** 0.06
25693 H 151.0965233827235 92.1349919113114 146.26554253472486 H 0.0 **** 0.06
25694 H 151.42003147060618 92.37055617466388 148.00110313616707 H 0.0 **** 0.06
25695 H 149.86864176616413 91.67662301978001 147.4716342829378 H 0.0 **** 0.06
25696 C 27.642427343858344 149.87122113905934 8.090598138552622 C 0.0 **** -0.24
25697 H 26.728272446038147 150.13064463883154 7.556375841061126 H 0.0 **** 0.06
25698 H 28.25433520306575 150.76525197876748 8.21873038049975 H 0.0 **** 0.06
25699 H 28.19946104173738 149.12926715350528 7.518169158089691 H 0.0 **** 0.06
25700 H 27.388572859539238 149.46088425501443 9.067450583019323 H 0.0 **** 0.06
25701 C 66.10419326065463 1.7329234080265508 39.52996272067219 C 0.0 **** -0.24
25702 H 66.01551700490984 1.8701422361906737 40.60834240407547 H 0.0 **** 0.06
25703 H 66.39301122867174 2.6770748048292035 39.06716089267064 H 0.0 **** 0.06
25704 H 65.1457063943651 1.40874076860635 39.12530643108107 H 0.0 **** 0.06
25705 H 66.86151587280278 0.9780441234619843 39.320661773907204 H 0.0 **** 0.06
25706 C 30.49435739052805 103.80836343321235 155.02660782003886 C 0.0 **** -0.24
25707 H 31.416739035033572 103.63507807688194 154.47224379424685 H 0.0 **** 0.06
25708 H 29.656297401181234 103.86316346648388 154.331300970448 H 0.0 **** 0.06
25709 H 30.572679317198208 104.74624822018652 155.57593465442292 H 0.0 **** 0.06
25710 H 30.332580576659097 102.98945203380248 155.72705449764942 H 0.0 **** 0.06
25711 C 56.54318991065878 26.51527035629192 59.371039764360944 C 0.0 **** -0.24
25712 H 56.369476609728736 25.477333397280063 59.65744469227097 H 0.0 **** 0.06
25713 H 56.22177688364681 26.66601899488421 58.3399918863919 H 0.0 **** 0.06
25714 H 57.606375381354724 26.74178762284032 59.457201215479685 H 0.0 **** 0.06
25715 H 55.976921530320595 27.172662012914543 60.02932348892554 H 0.0 **** 0.06
25716 C 158.33705692508397 67.86878044065678 63.400601980933516 C 0.0 **** -0.24
25717 H 158.48843006192524 66.88963868186458 63.854965022973516 H 0.0 **** 0.06
25718 H 158.54501844089435 68.64623343934454 64.1364185721128 H 0.0 **** 0.06
25719 H 157.3050883158571 67.95513901593982 63.06177289942556 H 0.0 **** 0.06
25720 H 159.0097980922288 67.98365386152167 62.550918749340525 H 0.0 **** 0.06
25721 C 77.31405281212747 28.367147484347285 157.8845088689278 C 0.0 **** -0.24
25722 H 76.6019836611546 28.422497628174796 158.7080822284766 H 0.0 **** 0.06
25723 H 77.3394212526126 27.34988006963325 157.49296621072529 H 0.0 **** 0.06
25724 H 78.30583610843192 28.642397006150432 158.24389416572544 H 0.0 **** 0.06
25725 H 77.01014001290348 29.05463577424662 157.09508246362913 H 0.0 **** 0.06
25726 C 54.66021716007161 2.7981682074846503 51.1680509867403 C 0.0 **** -0.24
25727 H 54.058670289462455 3.437751584334727 51.813992666240225 H 0.0 **** 0.06
25728 H 54.024137300626435 2.034030263867777 50.719632831543095 H 0.0 **** 0.06
25729 H 55.44258819601272 2.3205200823747276 51.756831066673584 H 0.0 **** 0.06
25730 H 55.11376466617395 3.4013924735550702 50.38155093501885 H 0.0 **** 0.06
25731 C 62.09123617431868 113.55283776092847 124.48554046213354 C 0.0 **** -0.24
25732 H 61.307945720466876 114.10484481927543 125.00551880041485 H 0.0 **** 0.06
25733 H 61.715622311247785 113.21315285333662 123.52006307304237 H 0.0 **** 0.06
25734 H 62.38781054938562 112.6921668536011 125.08412160437138 H 0.0 **** 0.06
25735 H 62.95264632401336 114.20220260731492 124.33210965917215 H 0.0 **** 0.06
25736 C 101.31236642663706 46.77442833283874 39.93496568947393 C 0.0 **** -0.24
25737 H 101.92106096620637 46.9663008281654 40.81852728061307 H 0.0 **** 0.06
25738 H 100.67071188395755 47.635688156401926 39.74218285707735 H 0.0 **** 0.06
25739 H 100.69539429306789 45.891905741866935 40.10300865330811 H 0.0 **** 0.06
25740 H 101.96171087944819 46.60540590992093 39.07577630631644 H 0.0 **** 0.06
25741 C 94.46883815800294 145.94258299165304 127.02970412965016 C 0.0 **** -0.24
25742 H 95.06545811473558 146.19496215720062 127.90575181175859 H 0.0 **** 0.06
25743 H 94.95770081972319 146.32679248138132 126.13386732552866 H 0.0 **** 0.06
25744 H 93.47826678826806 146.39065092435524 127.12324421735403 H 0.0 **** 0.06
25745 H 94.37158831522248 144.85979973097844 126.95580526530009 H 0.0 **** 0.06
25746 C 10.96391180132332 91.9846081242656 12.30310509593599 C 0.0 **** -0.24
25747 H 11.652035671427996 92.68937283110662 11.834739348352628 H 0.0 **** 0.06
25748 H 11.234336965693444 91.85578181742298 13.351612237462149 H 0.0 **** 0.06
25749 H 11.024012753185673 91.02359302738033 11.791734330447753 H 0.0 **** 0.06
25750 H 9.947440983026866 92.3701780602872 12.234424364454526 H 0.0 **** 0.06
25751 C 148.75889406206244 44.81166453574161 71.17343833228756 C 0.0 **** -0.24
25752 H 147.69993667257398 45.05740792687092 71.2572574091032 H 0.0 **** 0.06
25753 H 149.2547923749622 45.015486893680034 72.12269883778805 H 0.0 **** 0.06
25754 H 149.21124003268997 45.4176792090267 70.38896239226472 H 0.0 **** 0.06
25755 H 148.86738418854225 43.75525976228471 70.92545029950884 H 0.0 **** 0.06
25756 C 142.5847349558917 26.436245861142964 141.32746161063483 C 0.0 **** -0.24
25757 H 143.58912854548265 26.27171910801573 140.93767110074015 H 0.0 **** 0.06
25758 H 142.62548714963816 27.158357650770256 142.14317051566778 H 0.0 **** 0.06
25759 H 142.17934849267425 25.493423309364346 141.69575179285312 H 0.0 **** 0.06
25760 H 141.94516298019727 26.820130667941328 140.53288542248129 H 0.0 **** 0.06
25761 C 71.77289543030507 53.744698379305134 81.52924536963684 C 0.0 **** -0.24
25762 H 70.95783563385946 53.62385965156932 82.24246882790284 H 0.0 **** 0.06
25763 H 71.90952334020035 52.81579678014782 80.97446356386389 H 0.0 **** 0.06
25764 H 72.69088184704181 53.987042102627754 82.06440201552888 H 0.0 **** 0.06
25765 H 71.53321333243176 54.55041289248686 80.83525415624304 H 0.0 **** 0.06
25766 C 91.57910838573198 73.50909941864143 98.65603085692408 C 0.0 **** -0.24
25767 H 92.40162529986745 74.21196661219597 98.5219158633036 H 0.0 **** 0.06
25768 H 91.45509002662544 72.91687489219692 97.74915007412494 H 0.0 **** 0.06
25769 H 90.66065125199273 74.05857683106058 98.85984994783516 H 0.0 **** 0.06
25770 H 91.79987829382284 72.8475144810975 99.49468945852087 H 0.0 **** 0.06
25771 C 53.4793402946072 146.4941798428522 165.73960763097062 C 0.0 **** -0.24
25772 H 53.94062370664852 147.44503901972269 165.47243983742186 H 0.0 **** 0.06
25773 H 54.195894824814644 145.68690566722492 165.58648934610093 H 0.0 **** 0.06
25774 H 52.603269707354485 146.32709566467344 165.1138462086901 H 0.0 **** 0.06
25775 H 53.177975042661544 146.5197937910824 166.78682398713562 H 0.0 **** 0.06
25776 C 14.232273142343018 126.9605567986871 59.531810326564994 C 0.0 **** -0.24
25777 H 14.813689010970336 127.43755719711714 58.74290704469398 H 0.0 **** 0.06
25778 H 14.827777710570132 126.9141555671545 60.44411918184797 H 0.0 **** 0.06
25779 H 13.962371554873016 125.9508080768349 59.22256635177615 H 0.0 **** 0.06
25780 H 13.327180722519955 127.53757625227146 59.716781670456015 H 0.0 **** 0.06
25781 C 99.33987095533203 40.41993144694402 166.86768658550676 C 0.0 **** -0.24
25782 H 99.4434230942154 40.56605266802032 167.94323144732067 H 0.0 **** 0.06
25783 H 100.07942593535645 39.69416521678903 166.52754392241417 H 0.0 **** 0.06
25784 H 99.49855001480245 41.36845251254104 166.35535865513577 H 0.0 **** 0.06
25785 H 98.3390941798366 40.05000499645075 166.6465815672446 H 0.0 **** 0.06
25786 C 0.8316822561607466 164.9512298716454 152.42557077217947 C 0.0 **** -0.24
25787 H 0.38176226586740825 165.2046939576119 153.38630600555973 H 0.0 **** 0.06
25788 H 0.15565144815819565 165.24261174248358 151.6207812475048 H 0.0 **** 0.06
25789 H 1.0084223376846495 163.87642598783611 152.38086339745564 H 0.0 **** 0.06
25790 H 1.778046689199158 165.48022688841394 152.31656306848362 H 0.0 **** 0.06
25791 C 171.16676186654757 117.69936506268337 147.68272161799962 C 0.0 **** -0.24
25792 H 171.69637972997344 116.76152929985929 147.85085606197208 H 0.0 **** 0.06
25793 H 171.01796034211526 118.20787143155829 148.63556241203992 H 0.0 **** 0.06
25794 H 170.19864895000075 117.49308838295028 147.2252792461187 H 0.0 **** 0.06
25795 H 171.75425275077174 118.33362510606503 147.0188008044339 H 0.0 **** 0.06
25796 C 75.34231707846394 131.5498611579552 31.77134864272591 C 0.0 **** -0.24
25797 H 75.22270584329384 132.11925535163192 30.849466547505756 H 0.0 **** 0.06
25798 H 75.27330307575305 130.48455636088445 31.55184936296058 H 0.0 **** 0.06
25799 H 74.55619883449883 131.82737943850867 32.47380497944653 H 0.0 **** 0.06
25800 H 76.31606394110418 131.7682357682274 32.21035408220837 H 0.0 **** 0.06
25801 C 21.054341791741294 159.42770964862729 50.30492004007331 C 0.0 **** -0.24
25802 H 21.01834502859424 159.45474877742416 51.39402256302243 H 0.0 **** 0.06
25803 H 21.235709391173984 160.432902799867 49.92280913798329 H 0.0 **** 0.06
25804 H 20.10488126633342 159.0581745380234 49.918397493524225 H 0.0 **** 0.06
25805 H 21.859248855386497 158.7661537984455 49.98462226993925 H 0.0 **** 0.06
25806 C 63.22161334539777 1.6909985803024483 0.5406745257443788 C 0.0 **** -0.24
25807 H 62.55593830933924 0.8378723896266536 0.4068475656407031 H 0.0 **** 0.06
25808 H 64.05169511495467 1.616735884617981 -0.16207045021855038 H 0.0 **** 0.06
25809 H 63.60625502826244 1.694595758421542 1.5598550699617135 H 0.0 **** 0.06
25810 H 62.67005118311562 2.6130056582552754 0.35619601403917045 H 0.0 **** 0.06
25811 C 42.80317828573094 42.02972998623757 9.408236153319052 C 0.0 **** -0.24
25812 H 43.23282492386278 43.02915731672431 9.344416514618871 H 0.0 **** 0.06
25813 H 41.84868817596663 42.01096435792191 8.880729082011214 H 0.0 **** 0.06
25814 H 42.645826649395886 41.76822140218546 10.454789026744152 H 0.0 **** 0.06
25815 H 43.484062703782286 41.311100129945714 8.953101340150539 H 0.0 **** 0.06
25816 C 2.219150207479167 76.63154407267498 141.6692635814299 C 0.0 **** -0.24
25817 H 2.111443949434566 77.45909002815922 142.37015888527958 H 0.0 **** 0.06
25818 H 2.807180512970085 76.95758692848064 140.81087868901506 H 0.0 **** 0.06
25819 H 1.233219841974197 76.31022308041058 141.333811182675 H 0.0 **** 0.06
25820 H 2.724017557184986 75.8008145744233 142.1625015058492 H 0.0 **** 0.06
25821 C 148.95984557753354 138.83836550459566 55.907750475172065 C 0.0 **** -0.24
25822 H 149.81750945142397 138.87205903675184 56.578995279769686 H 0.0 **** 0.06
25823 H 149.04690255841817 139.6353357705034 55.1681061618919 H 0.0 **** 0.06
25824 H 148.0440350515029 138.97508545076587 56.482639087028815 H 0.0 **** 0.06
25825 H 148.9321199089606 137.87348579023273 55.40183289464568 H 0.0 **** 0.06
25826 C 115.14968042927282 143.1400598396781 106.61185175966887 C 0.0 **** -0.24
25827 H 114.50439146297876 143.81412016780456 107.17549084506629 H 0.0 **** 0.06
25828 H 114.88666167189487 142.10751824452268 106.84371853165757 H 0.0 **** 0.06
25829 H 116.18958137554333 143.32005247038364 106.88416014258448 H 0.0 **** 0.06
25830 H 115.01669465427045 143.3183235188788 105.54413875157292 H 0.0 **** 0.06
25831 C 141.2316109050123 114.45970290643967 114.6644443121767 C 0.0 **** -0.24
25832 H 141.39485317498333 113.69033582540177 113.90975997983713 H 0.0 **** 0.06
25833 H 142.09542114663395 114.50571431449669 115.32818900893747 H 0.0 **** 0.06
25834 H 140.34066228254534 114.21834303855798 115.24277475996846 H 0.0 **** 0.06
25835 H 141.0964417036538 115.42452684935691 114.17502501594075 H 0.0 **** 0.06
25836 C 151.33738155863497 165.22883324391466 0.21258072797238015 C 0.0 **** -0.24
25837 H 151.79308559766014 164.59753203333628 -0.5514610558597894 H 0.0 **** 0.06
25838 H 151.10549938005815 164.62467836726478 1.0904883336859257 H 0.0 **** 0.06
25839 H 150.4202556437581 165.66870215796249 -0.17948251406741633 H 0.0 **** 0.06
25840 H 152.0319576522176 166.02194821553564 0.48896971148764123 H 0.0 **** 0.06
25841 C 43.014239871442044 91.90556308873039 161.98364577407963 C 0.0 **** -0.24
25842 H 43.50639065447086 92.87666391973951 161.93041075499644 H 0.0 **** 0.06
25843 H 41.969399036306015 92.01092665617307 161.69192959860732 H 0.0 **** 0.06
25844 H 43.069828725783736 91.52680106341388 163.00434621996283 H 0.0 **** 0.06
25845 H 43.51169025373224 91.20809352338391 161.31009288573668 H 0.0 **** 0.06
25846 C 77.57419215664788 127.45769294482679 66.01179774338848 C 0.0 **** -0.24
25847 H 77.16141783277469 128.4662915321139 66.02059671612683 H 0.0 **** 0.06
25848 H 78.56632208802439 127.46790592045335 66.46411522587597 H 0.0 **** 0.06
25849 H 77.6466735977072 127.10338429362253 64.9843611476585 H 0.0 **** 0.06
25850 H 76.92337440934163 126.79376887712493 66.58026872841388 H 0.0 **** 0.06
25851 C 159.19921998458764 5.571396654208968 136.37936536242142 C 0.0 **** -0.24
25852 H 160.26517702921072 5.673091143761866 136.17696728932947 H 0.0 **** 0.06
25853 H 158.92480357945809 4.517020813169893 136.35955657723156 H 0.0 **** 0.06
25854 H 158.6335360881833 6.109898763559528 135.6183105530351 H 0.0 **** 0.06
25855 H 158.9745527213433 5.987289777490048 137.361343318008 H 0.0 **** 0.06
25856 C 24.61379412790211 60.18378778260191 18.04410809417417 C 0.0 **** -0.24
25857 H 25.39982502608052 60.90674820562327 18.262762719373214 H 0.0 **** 0.06
25858 H 24.149429385994495 59.85878936343232 18.975201860446198 H 0.0 **** 0.06
25859 H 25.045370120062614 59.32218915441612 17.533300701992033 H 0.0 **** 0.06
25860 H 23.862891560873265 60.64688945613166 17.404676835679446 H 0.0 **** 0.06
25861 C 160.4672958332246 106.16977691428212 155.5323460286608 C 0.0 **** -0.24
25862 H 161.5374694297557 106.16062212320628 155.74276439954753 H 0.0 **** 0.06
25863 H 159.9168311594052 105.91180216554096 156.43726694589736 H 0.0 **** 0.06
25864 H 160.24539005206427 105.44227669889699 154.75098153509472 H 0.0 **** 0.06
25865 H 160.17278904065876 107.16386174035313 155.19745609980143 H 0.0 **** 0.06
25866 C 1.5292778313307736 133.6911273172041 89.54947392261823 C 0.0 **** -0.24
25867 H 1.3626482301243357 132.65181495449417 89.2686562999593 H 0.0 **** 0.06
25868 H 2.2465780512582683 133.73419166783964 90.37007863116293 H 0.0 **** 0.06
25869 H 0.586871482866087 134.1367202140544 89.86683871294042 H 0.0 **** 0.06
25870 H 1.921769644048311 134.239749609722 88.6934605269651 H 0.0 **** 0.06
25871 C 44.636878823889845 53.19526393395756 164.24098472052356 C 0.0 **** -0.24
25872 H 44.44664401006008 54.09776215029238 163.6581511817201 H 0.0 **** 0.06
25873 H 43.83743120130805 53.05981634277835 164.9695968535506 H 0.0 **** 0.06
25874 H 45.59005500617923 53.29326068827167 164.76025245288497 H 0.0 **** 0.06
25875 H 44.672503011191566 52.33332311778774 163.5743347774938 H 0.0 **** 0.06
25876 C 55.518704552873274 67.15655343613975 93.8677760490649 C 0.0 **** -0.24
25877 H 56.15025434468738 66.35092370325735 93.49250575143483 H 0.0 **** 0.06
25878 H 54.765014640330875 66.74429842799815 94.53905283499839 H 0.0 **** 0.06
25879 H 55.02871777706925 67.65396005810653 93.03087116103526 H 0.0 **** 0.06
25880 H 56.133959602371036 67.8765916480849 94.40882080478681 H 0.0 **** 0.06
25881 C 135.66073881827202 97.11932655401574 101.97281316831072 C 0.0 **** -0.24
25882 H 136.53353646255522 97.54230913325773 101.47606758304721 H 0.0 **** 0.06
25883 H 135.21864083658562 96.35043449474551 101.33816239993462 H 0.0 **** 0.06
25884 H 134.9286028590064 97.90613644683879 102.15329669267322 H 0.0 **** 0.06
25885 H 135.9614943657716 96.67823449524269 102.92301897543857 H 0.0 **** 0.06
25886 C 122.52246896616055 166.54645720509936 11.500135771452506 C 0.0 **** -0.24
25887 H 121.73225832217759 166.19300186985348 12.16189904224018 H 0.0 **** 0.06
25888 H 122.14589862333548 166.59557468933892 10.478646455671253 H 0.0 **** 0.06
25889 H 123.36793089774233 165.8590647601079 11.544271541822297 H 0.0 **** 0.06
25890 H 122.84456524290408 167.5379041831902 11.81724780212511 H 0.0 **** 0.06
25891 C 162.3048212378938 141.82572816338455 62.31164736169353 C 0.0 **** -0.24
25892 H 162.45777442766587 142.5165896065688 63.14033907388388 H 0.0 **** 0.06
25893 H 163.25208021623948 141.35199402527502 62.05474160312632 H 0.0 **** 0.06
25894 H 161.92565985159717 142.3725790041321 61.44887626780121 H 0.0 **** 0.06
25895 H 161.5841417421236 141.06192301468894 62.60398611731665 H 0.0 **** 0.06
25896 C 13.16168246150199 20.764958933525037 88.91444662663511 C 0.0 **** -0.24
25897 H 13.639201750316431 21.700639657169518 88.62306181864683 H 0.0 **** 0.06
25898 H 13.665559300574344 20.358502648408546 89.79138197469744 H 0.0 **** 0.06
25899 H 13.229965436607145 20.051088905772247 88.09297646206281 H 0.0 **** 0.06
25900 H 12.113871694530303 20.949354799890074 89.14916329699108 H 0.0 **** 0.06
25901 C 85.20838333836446 42.53075467078787 91.0992542471595 C 0.0 **** -0.24
25902 H 85.21711873275848 42.31983393601428 90.02987016145079 H 0.0 **** 0.06
25903 H 85.34331893962371 41.601021434416 91.652881112454 H 0.0 **** 0.06
25904 H 84.25519107460241 42.98213972274647 91.37264627204989 H 0.0 **** 0.06
25905 H 86.01886090790356 43.217841178844736 91.3395402965718 H 0.0 **** 0.06
25906 C 110.19638473851094 121.12999865919323 114.27583801107039 C 0.0 **** -0.24
25907 H 109.33688697040927 121.67234542328544 114.66915435241557 H 0.0 **** 0.06
25908 H 110.41175732939442 121.47459029501482 113.26390201225163 H 0.0 **** 0.06
25909 H 109.97422982819828 120.06251608475455 114.25628382272981 H 0.0 **** 0.06
25910 H 111.06207364819386 121.3089155967524 114.91259667199574 H 0.0 **** 0.06
25911 C 112.13475289270562 105.77003323089718 34.80746458914233 C 0.0 **** -0.24
25912 H 111.28590166102146 105.41615851211361 35.39202291610606 H 0.0 **** 0.06
25913 H 113.03936676049554 105.7214293884129 35.415138558877814 H 0.0 **** 0.06
25914 H 111.96005083905052 106.80041183669084 34.498297486546434 H 0.0 **** 0.06
25915 H 112.2555669375152 105.14060985254207 33.92587094189004 H 0.0 **** 0.06
25916 C 134.2458161485493 140.95707933835226 132.56939733851013 C 0.0 **** -0.24
25917 H 134.26282766825358 140.09348820350908 133.23335449974596 H 0.0 **** 0.06
25918 H 133.74154030498076 141.7874376386065 133.0657975907854 H 0.0 **** 0.06
25919 H 133.71185789735569 140.70180375972603 131.65455466069832 H 0.0 **** 0.06
25920 H 135.26761991323178 141.2473937888665 132.32506606702808 H 0.0 **** 0.06
25921 C 156.1792746696649 32.86054372960284 164.8365089909792 C 0.0 **** -0.24
25922 H 155.7855960676751 33.839727452272356 165.1112627230974 H 0.0 **** 0.06
25923 H 156.04540810546493 32.70242613459132 163.76627314762325 H 0.0 **** 0.06
25924 H 155.6460467238897 32.087044327218095 165.38919499330729 H 0.0 **** 0.06
25925 H 157.24131201727135 32.81564926252223 165.08080877925795 H 0.0 **** 0.06
25926 C 19.114995465405258 51.46937322891294 102.12683360430353 C 0.0 **** -0.24
25927 H 18.559349521801515 51.09363789723517 102.98499890448406 H 0.0 **** 0.06
25928 H 19.75687277256752 50.679752757939085 101.73567605189865 H 0.0 **** 0.06
25929 H 19.728150217847343 52.31716932383837 102.43339555989544 H 0.0 **** 0.06
25930 H 18.41680895766639 51.78641396855325 101.35272383796953 H 0.0 **** 0.06
25931 C 130.68756501945197 4.1639451071102656 24.877760231940414 C 0.0 **** -0.24
25932 H 130.87367023570505 5.236919403883348 24.911378118040915 H 0.0 **** 0.06
25933 H 130.8301823951336 3.7396733912501645 25.872015733456493 H 0.0 **** 0.06
25934 H 131.38079102017687 3.6963106168294644 24.178839013076924 H 0.0 **** 0.06
25935 H 129.66356825728286 3.983468358582428 24.549482937868788 H 0.0 **** 0.06
25936 C 67.17062392008916 107.79786591171793 90.00234241013882 C 0.0 **** -0.24
25937 H 66.82272852024926 106.84753231721666 89.59857142351808 H 0.0 **** 0.06
25938 H 67.41777479141899 107.67699465975824 91.05692894765505 H 0.0 **** 0.06
25939 H 66.3853614220501 108.54692583968156 89.89645925811831 H 0.0 **** 0.06
25940 H 68.05716846211709 108.12204335179592 89.45664838616455 H 0.0 **** 0.06
25941 C 114.62523674639033 21.736096667692713 115.13687467259419 C 0.0 **** -0.24
25942 H 114.29495127885201 21.146636142314534 115.99251770565482 H 0.0 **** 0.06
25943 H 115.69442814400645 21.587979344003152 114.98594027367974 H 0.0 **** 0.06
25944 H 114.42615955525258 22.79073098394393 115.32371652940776 H 0.0 **** 0.06
25945 H 114.0846711263278 21.41636918720298 114.24589244001263 H 0.0 **** 0.06
25946 C 138.02670186941614 3.0555153223398577 33.860848396660515 C 0.0 **** -0.24
25947 H 137.6625867876673 3.2933700693423305 34.86032451529539 H 0.0 **** 0.06
25948 H 137.2877590775272 2.446671063901647 33.34136850101902 H 0.0 **** 0.06
25949 H 138.96353794465668 2.5040302626457276 33.937670078600746 H 0.0 **** 0.06
25950 H 138.19318149443228 3.9793227509587155 33.30580733049493 H 0.0 **** 0.06
25951 C 33.36897485380155 87.00869987432918 90.70716991683804 C 0.0 **** -0.24
25952 H 33.62306040418275 86.19642486023835 91.38723901953489 H 0.0 **** 0.06
25953 H 33.67831443408704 86.74640860079454 89.69529121618315 H 0.0 **** 0.06
25954 H 33.88093054867261 87.91861734428461 91.02043458390345 H 0.0 **** 0.06
25955 H 32.29123303121543 87.17366782924147 90.72628406820681 H 0.0 **** 0.06
25956 C 22.556602098199562 40.78646814675186 78.84231843456152 C 0.0 **** -0.24
25957 H 23.361949267624112 40.1057244724434 79.11621465804183 H 0.0 **** 0.06
25958 H 21.96322152031783 40.344727631572894 78.04140644900023 H 0.0 **** 0.06
25959 H 22.9794035079548 41.73211299508037 78.50352503893193 H 0.0 **** 0.06
25960 H 21.920598053439335 40.964412517292004 79.71041917034883 H 0.0 **** 0.06
25961 C 12.703173381577884 122.00595231771621 40.43823238142204 C 0.0 **** -0.24
25962 H 12.191184534398985 121.2819189326961 39.80439228883199 H 0.0 **** 0.06
25963 H 13.423808959146392 122.56601981245555 39.84202859041653 H 0.0 **** 0.06
25964 H 13.223107429282472 121.48250435157902 41.240477975306305 H 0.0 **** 0.06
25965 H 11.97319886902492 122.69326394760682 40.86624771919196 H 0.0 **** 0.06
25966 C 61.56023253242401 151.72570835349765 164.6986926360031 C 0.0 **** -0.24
25967 H 60.50736212389107 151.78153744596528 164.97568579113363 H 0.0 **** 0.06
25968 H 62.16326401045069 152.21463597329983 165.4640709837881 H 0.0 **** 0.06
25969 H 61.7109207263354 152.22680212926346 163.74276101329772 H 0.0 **** 0.06
25970 H 61.8572722657517 150.68104476186687 164.61188518304857 H 0.0 **** 0.06
25971 C 38.69741016900505 108.18157526870579 28.469930778805235 C 0.0 **** -0.24
25972 H 39.42948542427146 108.57324405002191 29.17621441405231 H 0.0 **** 0.06
25973 H 39.13789472896329 107.353707776553 27.913618838929494 H 0.0 **** 0.06
25974 H 38.40176181643429 108.96977869797735 27.77773024234773 H 0.0 **** 0.06
25975 H 37.821307081583285 107.82903195613466 29.014408311384727 H 0.0 **** 0.06
25976 C 121.67125921949133 139.94311067761953 34.963248015023794 C 0.0 **** -0.24
25977 H 121.61873789194519 138.88972858813202 35.23630448542667 H 0.0 **** 0.06
25978 H 121.85986894341022 140.5411234356166 35.854898339974454 H 0.0 **** 0.06
25979 H 120.727603908352 140.2489704227678 34.51193144713409 H 0.0 **** 0.06
25980 H 122.48092410196597 140.0923278029979 34.24862767956779 H 0.0 **** 0.06
25981 C 172.41320461854332 124.05839124848347 127.62259428506115 C 0.0 **** -0.24
25982 H 172.23289959425645 124.7777956126605 128.42186061472444 H 0.0 **** 0.06
25983 H 171.48372141889732 123.54563501158242 127.37794929901827 H 0.0 **** 0.06
25984 H 173.15524976381022 123.33077062917067 127.95038599516266 H 0.0 **** 0.06
25985 H 172.78307525196098 124.58188790837193 126.74050122303976 H 0.0 **** 0.06
25986 C 105.35533389998582 113.35386005950491 89.96986151223884 C 0.0 **** -0.24
25987 H 104.34511383857063 113.55823402821792 89.61734647578693 H 0.0 **** 0.06
25988 H 105.33142669886735 113.14623199998744 91.03969618317522 H 0.0 **** 0.06
25989 H 105.98766488321792 114.2227066181149 89.78209990005443 H 0.0 **** 0.06
25990 H 105.75702533253659 112.49103645954062 89.43973550975316 H 0.0 **** 0.06
25991 C 125.5656701221863 120.21119734507133 90.61317893110872 C 0.0 **** -0.24
25992 H 124.56646521588831 119.92428968852232 90.28528147641886 H 0.0 **** 0.06
25993 H 126.26717955474399 120.09019925988338 89.78759660866753 H 0.0 **** 0.06
25994 H 125.86986319084423 119.57593412316956 91.44543515295021 H 0.0 **** 0.06
25995 H 125.55703896856028 121.25204398951857 90.93416788007018 H 0.0 **** 0.06
25996 C 83.53891702633365 170.87977150915242 84.46059963732122 C 0.0 **** -0.24
25997 H 84.44367910700669 171.17780602172013 84.98971604381578 H 0.0 **** 0.06
25998 H 83.17387143731023 171.7165171888104 83.86382781272792 H 0.0 **** 0.06
25999 H 82.77560528356776 170.5889272385841 85.18259409025526 H 0.0 **** 0.06
26000 H 83.76143813167732 170.03669400916655 83.80659132738184 H 0.0 **** 0.06
26001 C 165.60930592843187 154.18574090720273 12.202756776035656 C 0.0 **** -0.24
26002 H 166.48192484880286 154.4116883521345 12.815864568962887 H 0.0 **** 0.06
26003 H 164.71217354382952 154.2173697391092 12.82219953135148 H 0.0 **** 0.06
26004 H 165.7170807038829 153.19160508954417 11.769360018878167 H 0.0 **** 0.06
26005 H 165.52664373180517 154.9229376517306 11.404087815922452 H 0.0 **** 0.06
26006 C 38.67943634613414 115.2379770718089 10.868308245809004 C 0.0 **** -0.24
26007 H 37.674476664235215 114.8482936112492 10.702651808889811 H 0.0 **** 0.06
26008 H 39.33770968005314 114.42606846373752 11.177485889283787 H 0.0 **** 0.06
26009 H 38.6501868392221 115.9991438992673 11.647520471444807 H 0.0 **** 0.06
26010 H 39.05486067563061 115.6786221233281 9.944744119261486 H 0.0 **** 0.06
26011 C 82.75690970498368 118.18328206079653 57.77374397879656 C 0.0 **** -0.24
26012 H 81.77586329093137 117.723230285267 57.65753955383936 H 0.0 **** 0.06
26013 H 83.52451006555495 117.40946659117603 57.75079834068282 H 0.0 **** 0.06
26014 H 82.79972903477723 118.71164141422892 58.72523650861028 H 0.0 **** 0.06
26015 H 82.92604687949049 118.88673834318183 56.958837822232496 H 0.0 **** 0.06
26016 C 71.06657891290789 103.48666308747823 159.16066502971634 C 0.0 **** -0.24
26017 H 71.54930942237374 103.9051853617029 158.27801927829356 H 0.0 **** 0.06
26018 H 70.01631441753058 103.7767149123755 159.1726896740091 H 0.0 **** 0.06
26019 H 71.55906376617594 103.86428482691531 160.05752271913516 H 0.0 **** 0.06
26020 H 71.1438916187449 102.39953133260926 159.134406891676 H 0.0 **** 0.06
26021 C 22.06811598307869 46.81933125997294 88.85354264465121 C 0.0 **** -0.24
26022 H 22.530922355161856 47.545345822383084 88.18378123083443 H 0.0 **** 0.06
26023 H 22.83489766039925 46.36416359551369 89.48021675021454 H 0.0 **** 0.06
26024 H 21.572506820409593 46.047096378622555 88.26577397194109 H 0.0 **** 0.06
26025 H 21.334901137210025 47.32357921581598 89.48391174722775 H 0.0 **** 0.06
26026 C 19.212068931872352 83.26832127121486 152.8004647930599 C 0.0 **** -0.24
26027 H 20.0032044900384 83.98340205524767 152.57334762963504 H 0.0 **** 0.06
26028 H 18.241851391824497 83.75953432399658 152.710737883469 H 0.0 **** 0.06
26029 H 19.339234746121235 82.8977816250531 153.8180041939717 H 0.0 **** 0.06
26030 H 19.2632523696235 82.43444098761222 152.1011665145113 H 0.0 **** 0.06
26031 C 41.390487319882084 106.35148022714736 17.628258535715048 C 0.0 **** -0.24
26032 H 40.572391985515736 106.2172808166475 18.335218010226612 H 0.0 **** 0.06
26033 H 41.30646718801779 107.33084744653709 17.156442181217415 H 0.0 **** 0.06
26034 H 41.341414827583776 105.57470422592257 16.865173927684907 H 0.0 **** 0.06
26035 H 42.34167527841106 106.28308841948225 18.15620002373123 H 0.0 **** 0.06
26036 C 86.3968812794575 153.07930380643768 46.7052788682372 C 0.0 **** -0.24
26037 H 86.59204175624372 154.00816356725664 47.24150561744085 H 0.0 **** 0.06
26038 H 87.15404638497631 152.93965045683711 45.934014894415384 H 0.0 **** 0.06
26039 H 85.41147707763925 153.1281767765999 46.24265141749703 H 0.0 **** 0.06
26040 H 86.4300103694498 152.24358211188988 47.40360606387469 H 0.0 **** 0.06
26041 C 155.63897336943216 118.72133475573492 100.68484018158733 C 0.0 **** -0.24
26042 H 155.90779200606627 119.71112725339023 101.05329849178807 H 0.0 **** 0.06
26043 H 156.4311392717191 118.01490524248209 100.93384163573864 H 0.0 **** 0.06
26044 H 155.5120295276617 118.75804382045291 99.60340832583668 H 0.0 **** 0.06
26045 H 154.7068954116554 118.4013017138733 101.15027729864266 H 0.0 **** 0.06
26046 C 40.17710784015674 7.403149267865594 13.243117789836674 C 0.0 **** -0.24
26047 H 40.11235452439443 6.400788233503931 13.667587550405813 H 0.0 **** 0.06
26048 H 39.93144925240725 7.364450341727846 12.181073777874758 H 0.0 **** 0.06
26049 H 41.19054372636259 7.785077798911786 13.368119786471766 H 0.0 **** 0.06
26050 H 39.47512954456978 8.060323003051465 13.755417810708138 H 0.0 **** 0.06
26051 C 62.01888502151648 124.62826626940563 59.79329737039035 C 0.0 **** -0.24
26052 H 62.611910930701015 124.18219968187071 60.590620396149006 H 0.0 **** 0.06
26053 H 62.43329384385375 125.60268012884671 59.533323981195736 H 0.0 **** 0.06
26054 H 60.989287711471505 124.75006031369435 60.130203564363995 H 0.0 **** 0.06
26055 H 62.03971440958283 123.97905283930356 58.918440112882365 H 0.0 **** 0.06
26056 C 86.76131194064119 28.868398748332083 102.3636472437683 C 0.0 **** -0.24
26057 H 87.00141573693661 29.81856671851108 102.84011147462155 H 0.0 **** 0.06
26058 H 87.10779494833076 28.04842058362192 102.99387304584644 H 0.0 **** 0.06
26059 H 87.2540118457194 28.81362488237511 101.39243725756904 H 0.0 **** 0.06
26060 H 85.68276784990024 28.791932842833262 102.22875553819313 H 0.0 **** 0.06
26061 C 19.819403053840375 16.083805871843055 133.28934758960798 C 0.0 **** -0.24
26062 H 18.853259967971894 15.954406455346145 133.77807096687422 H 0.0 **** 0.06
26063 H 20.507443166682094 16.58276339467261 133.9728118659688 H 0.0 **** 0.06
26064 H 19.69474729394446 16.689729548348268 132.39203793421407 H 0.0 **** 0.06
26065 H 20.221228884587333 15.108091733735456 133.01648846339137 H 0.0 **** 0.06
26066 C 38.32293552339789 172.47549417856578 132.24311204319417 C 0.0 **** -0.24
26067 H 38.47228619101617 173.35246639448985 132.87294161913013 H 0.0 **** 0.06
26068 H 38.11534014335348 172.79310910464557 131.22058617949972 H 0.0 **** 0.06
26069 H 37.48109807280878 171.89486911087403 132.62104912516173 H 0.0 **** 0.06
26070 H 39.223414197818414 171.86117468444564 132.25622348881396 H 0.0 **** 0.06
26071 C 61.28230234743876 75.80846513665603 148.27423085814854 C 0.0 **** -0.24
26072 H 60.78065537426539 76.26347994921466 149.12758540706173 H 0.0 **** 0.06
26073 H 61.746570056665405 74.8716862765548 148.58305290517012 H 0.0 **** 0.06
26074 H 62.04834659525983 76.48690338474711 147.89938699041707 H 0.0 **** 0.06
26075 H 60.55462535418934 75.6119171658329 147.48698739647637 H 0.0 **** 0.06
26076 C 27.302523092600538 55.63429961070047 135.79751983694328 C 0.0 **** -0.24
26077 H 27.637411662836854 56.048502185517265 134.84643253151322 H 0.0 **** 0.06
26078 H 26.84844501022458 56.42317373657065 136.3971379589378 H 0.0 **** 0.06
26079 H 28.154702415846373 55.215539953498805 136.33133711994736 H 0.0 **** 0.06
26080 H 26.56824079637962 54.84979555310555 135.6133566209568 H 0.0 **** 0.06
26081 C 119.40402960279175 78.9638605131262 21.28352404319878 C 0.0 **** -0.24
26082 H 119.78223236327884 78.00090110837529 20.94063771203048 H 0.0 **** 0.06
26083 H 119.60771466832946 79.07458413058615 22.349926846790936 H 0.0 **** 0.06
26084 H 118.32945775206889 79.01367634194287 21.111978526553457 H 0.0 **** 0.06
26085 H 119.89863018138774 79.76488024841007 20.73407628605628 H 0.0 **** 0.06
26086 C 43.70091152264807 132.82115941168394 128.76977525120586 C 0.0 **** -0.24
26087 H 44.10003284837286 132.56078805306112 129.75031801958687 H 0.0 **** 0.06
26088 H 44.52296429275633 132.97639743546756 128.07174619984565 H 0.0 **** 0.06
26089 H 43.11275270746951 133.73523375170828 128.84876564856336 H 0.0 **** 0.06
26090 H 43.06684097032928 132.01029915754975 128.40936797445403 H 0.0 **** 0.06
26091 C 30.781419224206275 29.814605316404084 102.95430459778777 C 0.0 **** -0.24
26092 H 31.20557099243348 30.385118542175775 103.7808934537124 H 0.0 **** 0.06
26093 H 31.00569126551011 30.317851325786876 102.01375970641345 H 0.0 **** 0.06
26094 H 29.70142140489628 29.741843783627417 103.07982207172864 H 0.0 **** 0.06
26095 H 31.214676620522596 28.814474291952877 102.94429726570507 H 0.0 **** 0.06
26096 C 83.5349764662717 10.089481458133207 75.11831502374685 C 0.0 **** -0.24
26097 H 83.56688050093913 9.18620258433836 75.72743864816778 H 0.0 **** 0.06
26098 H 82.9553081268194 9.899221864052748 74.21524909146297 H 0.0 **** 0.06
26099 H 84.55008028925772 10.37887049029527 74.84528678516497 H 0.0 **** 0.06
26100 H 83.06845428182413 10.894379351559593 75.68722771237134 H 0.0 **** 0.06
26101 C 159.54436394753031 7.95903136588057 10.12142531880994 C 0.0 **** -0.24
26102 H 158.92131661039468 7.125254574972772 10.446685973303204 H 0.0 **** 0.06
26103 H 160.54497783330538 7.8492106395838945 10.539175766273729 H 0.0 **** 0.06
26104 H 159.1060081819902 8.89577234653337 10.466943435108703 H 0.0 **** 0.06
26105 H 159.60257796865181 7.964721833465163 9.032801902258086 H 0.0 **** 0.06
26106 C 68.07842224432589 120.16156971081145 106.1638608793213 C 0.0 **** -0.24
26107 H 68.41497046895091 120.3852064837738 107.17601899998988 H 0.0 **** 0.06
26108 H 67.83554550094712 119.10142812758795 106.08742846718172 H 0.0 **** 0.06
26109 H 68.87090507032087 120.40493050684788 105.45559489779481 H 0.0 **** 0.06
26110 H 67.19372030879704 120.75565105475494 105.93629109232279 H 0.0 **** 0.06
26111 C 129.63117609164865 140.3587391302488 69.7334787250342 C 0.0 **** -0.24
26112 H 130.49914532720766 139.8322909618664 69.33497282633155 H 0.0 **** 0.06
26113 H 129.83307934364743 141.43014683392494 69.75079400274215 H 0.0 **** 0.06
26114 H 129.42952830461036 140.0107717906463 70.74635140856807 H 0.0 **** 0.06
26115 H 128.76468320830816 140.16176629689937 69.10177389949409 H 0.0 **** 0.06
26116 C 10.81378784420992 55.61649803530676 104.58297165486474 C 0.0 **** -0.24
26117 H 10.514358409300435 56.5150697403498 104.04364421672196 H 0.0 **** 0.06
26118 H 9.986119783843975 55.27365656017034 105.20483058000312 H 0.0 **** 0.06
26119 H 11.673363250007966 55.841598641418784 105.21342148895147 H 0.0 **** 0.06
26120 H 11.08072302070719 54.83638294212946 103.86961181922376 H 0.0 **** 0.06
26121 C 50.15877320359681 158.5369735133857 101.56037155757323 C 0.0 **** -0.24
26122 H 50.890312094420494 159.12863994183547 101.0098074102772 H 0.0 **** 0.06
26123 H 49.23762325886264 158.46886738700147 100.98207189004566 H 0.0 **** 0.06
26124 H 49.95212869624015 159.0145646307465 102.5181168036286 H 0.0 **** 0.06
26125 H 50.55563667180013 157.53655388217166 101.73179828717778 H 0.0 **** 0.06
26126 C 55.346177802116415 122.72194628456202 90.98550948278904 C 0.0 **** -0.24
26127 H 55.75359936729542 121.8320881283525 91.46488126134523 H 0.0 **** 0.06
26128 H 56.05101972929327 123.08676273053317 90.23788522961996 H 0.0 **** 0.06
26129 H 55.17943236056192 123.49446866195427 91.73592490669313 H 0.0 **** 0.06
26130 H 54.400347813497646 122.47353419590536 90.50232908342741 H 0.0 **** 0.06
26131 C 99.9814821318144 100.06441532410574 123.01949089979243 C 0.0 **** -0.24
26132 H 98.98383870647186 99.98866589098725 122.58785588852561 H 0.0 **** 0.06
26133 H 99.98417858103707 100.82950109020678 123.79656214197959 H 0.0 **** 0.06
26134 H 100.69390641160555 100.33642062990037 122.2400160942235 H 0.0 **** 0.06
26135 H 100.26379317126805 99.10483547529748 123.45216879919232 H 0.0 **** 0.06
26136 C 150.96373426809507 57.70357089106244 64.11818617465838 C 0.0 **** -0.24
26137 H 151.3645276420714 58.57262846251112 64.63936635250292 H 0.0 **** 0.06
26138 H 151.5927273354796 56.83621187265919 64.32253705942797 H 0.0 **** 0.06
26139 H 150.9500302855406 57.89761911980827 63.04587434527993 H 0.0 **** 0.06
26140 H 149.94936918170418 57.50776482520118 64.46518419975075 H 0.0 **** 0.06
26141 C 99.38287419504391 121.5668787568508 36.34134140249478 C 0.0 **** -0.24
26142 H 99.11180532880635 121.83553083523182 37.36269978021704 H 0.0 **** 0.06
26143 H 98.47738902114293 121.44039598714826 35.74802370603163 H 0.0 **** 0.06
26144 H 99.94557690818812 120.63293926773798 36.3497017797998 H 0.0 **** 0.06
26145 H 99.99518875191944 122.35672925593644 35.90839775103635 H 0.0 **** 0.06
26146 C 121.90189732456162 9.550063484752968 138.4001676780348 C 0.0 **** -0.24
26147 H 122.55235538509683 8.677511947679534 138.35279392903382 H 0.0 **** 0.06
26148 H 121.67913465259304 9.781601331649767 139.44244510923335 H 0.0 **** 0.06
26149 H 120.97330998943107 9.339295141350988 137.86829410946422 H 0.0 **** 0.06
26150 H 122.40089863710207 10.400808649722308 137.93654549503998 H 0.0 **** 0.06
26151 C 105.63622756655747 104.09445268704792 159.17470740182816 C 0.0 **** -0.24
26152 H 105.02013196829009 104.74562655106826 158.5554498067154 H 0.0 **** 0.06
26153 H 106.32550231139516 103.53613815957135 158.53977949165994 H 0.0 **** 0.06
26154 H 104.99658715382932 103.3973269039179 159.7174486056471 H 0.0 **** 0.06
26155 H 106.20233616657316 104.6962374216699 159.88450337574227 H 0.0 **** 0.06
26156 C 146.4548609168443 3.183358056596809 134.45150987863246 C 0.0 **** -0.24
26157 H 146.43815737719711 2.4528681551569207 133.64208495468296 H 0.0 **** 0.06
26158 H 147.36660399313163 3.777237176578545 134.38503923372156 H 0.0 **** 0.06
26159 H 146.42855395445304 2.66369096569165 135.40960865226992 H 0.0 **** 0.06
26160 H 145.58686197726902 3.837324356258655 134.36896232025362 H 0.0 **** 0.06
26161 C 36.66620800811097 63.60516366783196 102.4395859622118 C 0.0 **** -0.24
26162 H 35.84342343020893 63.09234334854574 101.94200779961778 H 0.0 **** 0.06
26163 H 37.37217595125608 62.8689336460956 102.8244324450682 H 0.0 **** 0.06
26164 H 36.276126859197234 64.2010086368204 103.2649947495126 H 0.0 **** 0.06
26165 H 37.170868028499285 64.25691069478387 101.72783937523849 H 0.0 **** 0.06
26166 C 63.91690304854829 125.61291695539421 141.92030564598838 C 0.0 **** -0.24
26167 H 63.75199304617381 124.55841977823462 141.69519316766852 H 0.0 **** 0.06
26168 H 63.23403356988767 126.22142215763148 141.32682026380823 H 0.0 **** 0.06
26169 H 64.94553923555495 125.87921144979958 141.67791956475554 H 0.0 **** 0.06
26170 H 63.73516363917443 125.7909017166665 142.9801548775591 H 0.0 **** 0.06
26171 C 93.09553643258025 143.14689517177268 52.82746037021127 C 0.0 **** -0.24
26172 H 92.83379874189797 142.19068010014433 52.372768887045055 H 0.0 **** 0.06
26173 H 93.76814603850079 142.97631871379744 53.6688034691318 H 0.0 **** 0.06
26174 H 92.18985760175471 143.63993721135864 53.18123232881594 H 0.0 **** 0.06
26175 H 93.58859964077132 143.77708078415787 52.088158729708866 H 0.0 **** 0.06
26176 C 101.27411493390014 44.235548021391395 118.96769448344833 C 0.0 **** -0.24
26177 H 101.86669083306236 45.148394738321855 118.92534111504622 H 0.0 **** 0.06
26178 H 101.5974025660808 43.555278413266365 118.17946065653337 H 0.0 **** 0.06
26179 H 100.22064552821172 44.479762146735595 118.82849722356613 H 0.0 **** 0.06
26180 H 101.41102124591777 43.758903818385875 119.9386992051169 H 0.0 **** 0.06
26181 C 65.22382449757295 128.44764595949428 27.89899810619619 C 0.0 **** -0.24
26182 H 64.67365585026111 128.7275840107778 28.797472556414277 H 0.0 **** 0.06
26183 H 66.11735294733444 129.06671809967656 27.81152918016039 H 0.0 **** 0.06
26184 H 64.59078307461672 128.59786727976143 27.02391449644321 H 0.0 **** 0.06
26185 H 65.51326370311145 127.39834640338401 27.96168455215482 H 0.0 **** 0.06
26186 C 85.98394583601834 1.438477685695915 4.474120925790814 C 0.0 **** -0.24
26187 H 87.05167103971343 1.2395433702781418 4.3777039404229185 H 0.0 **** 0.06
26188 H 85.73373560316388 1.5735365734416291 5.527280065694164 H 0.0 **** 0.06
26189 H 85.41998316097035 0.5975078609139359 4.071045212990775 H 0.0 **** 0.06
26190 H 85.73172375135297 2.343469966553215 3.9215540315994843 H 0.0 **** 0.06
26191 C 12.668825528947878 100.01840366143551 59.26923381554133 C 0.0 **** -0.24
26192 H 12.137175993968015 99.89879412149759 58.32454680339055 H 0.0 **** 0.06
26193 H 12.16363592393131 99.44215040513635 60.044941787575056 H 0.0 **** 0.06
26194 H 12.680558160252247 101.07154867954392 59.548545608854056 H 0.0 **** 0.06
26195 H 13.692150407371827 99.66026934120376 59.157451962775724 H 0.0 **** 0.06
26196 C 22.50754723657667 3.454215533248231 132.230696737035 C 0.0 **** -0.24
26197 H 22.298248011080204 2.5643100938373493 131.63738794864898 H 0.0 **** 0.06
26198 H 22.82640425527643 3.1577792169858867 133.23032262526638 H 0.0 **** 0.06
26199 H 21.60672771439357 4.063336679833327 132.30090915466107 H 0.0 **** 0.06
26200 H 23.299660771065845 4.030772513343948 131.75220911752513 H 0.0 **** 0.06
26201 C 151.99933881649994 17.988002518285327 3.0454861298706533 C 0.0 **** -0.24
26202 H 151.2854305498616 18.812359339132044 3.043029423536325 H 0.0 **** 0.06
26203 H 152.80723903821 18.209493230279797 3.7426756835685637 H 0.0 **** 0.06
26204 H 152.40828691339595 17.859909711868077 2.0435061608807814 H 0.0 **** 0.06
26205 H 151.49419292756704 17.072367456258164 3.3519322612055475 H 0.0 **** 0.06
26206 C 137.04365849272685 109.78455407000683 134.04418469760193 C 0.0 **** -0.24
26207 H 137.06014410392802 110.87193928088408 133.9727087995623 H 0.0 **** 0.06
26208 H 136.08573179787197 109.41163386428633 133.68119687099616 H 0.0 **** 0.06
26209 H 137.18033255945105 109.4875020730189 135.08350344932194 H 0.0 **** 0.06
26210 H 137.84933364727357 109.36858560620402 133.43788443099615 H 0.0 **** 0.06
26211 C 167.51966267677898 5.848101222781473 29.650571280673432 C 0.0 **** -0.24
26212 H 167.85466264857018 6.884303405965859 29.691341680572975 H 0.0 **** 0.06
26213 H 166.4694318498701 5.7936702036794046 29.93739119365091 H 0.0 **** 0.06
26214 H 168.11620546176772 5.247005033314849 30.337916393539786 H 0.0 **** 0.06
26215 H 167.64071110831736 5.467557640482383 28.63627741370948 H 0.0 **** 0.06
26216 C 102.87898774670055 44.990251224962435 10.094267463232995 C 0.0 **** -0.24
26217 H 102.25354160237231 44.49155404556271 9.353116696457477 H 0.0 **** 0.06
26218 H 103.0784743300174 46.01171606187819 9.772520923176273 H 0.0 **** 0.06
26219 H 103.82053351954636 44.45015437708656 10.196664505222998 H 0.0 **** 0.06
26220 H 102.36185856054385 45.005006192397786 11.053356022076485 H 0.0 **** 0.06
26221 C 26.501053958762483 84.66178237944803 167.17954605606835 C 0.0 **** -0.24
26222 H 27.190471228616893 85.38632063669849 167.6127092131721 H 0.0 **** 0.06
26223 H 26.888012785081862 83.65469034371887 167.3343319679283 H 0.0 **** 0.06
26224 H 26.398310911794752 84.8517528551493 166.11099924893776 H 0.0 **** 0.06
26225 H 25.527078681653485 84.75509984252238 167.66073023830992 H 0.0 **** 0.06
26226 C 59.137668586120924 155.21854761119437 171.01508923254704 C 0.0 **** -0.24
26227 H 58.98877954447137 155.83255010266043 171.90334323925708 H 0.0 **** 0.06
26228 H 58.82707443105376 155.77585166910268 170.13197111427436 H 0.0 **** 0.06
26229 H 58.542411255069624 154.30930687991787 171.09916174812093 H 0.0 **** 0.06
26230 H 60.191886620902224 154.95528079224823 170.92795079608004 H 0.0 **** 0.06
26231 C 38.38981442285808 72.08155352752084 95.92626507821527 C 0.0 **** -0.24
26232 H 39.293625121598865 71.55007880489455 96.22209440435137 H 0.0 **** 0.06
26233 H 37.919082025531395 71.56185081779603 95.09184834549384 H 0.0 **** 0.06
26234 H 38.64863216106508 73.09647944306778 95.62299626123061 H 0.0 **** 0.06
26235 H 37.69909836165647 72.11970443568543 96.76813145308608 H 0.0 **** 0.06
26236 C 116.13053924674074 121.93003985129403 120.81438422667861 C 0.0 **** -0.24
26237 H 115.22649987162916 121.35565446114339 120.61017002692688 H 0.0 **** 0.06
26238 H 115.8598141662965 122.9537523235054 121.07215132985678 H 0.0 **** 0.06
26239 H 116.76563537392411 121.93371829799182 119.92949128647365 H 0.0 **** 0.06
26240 H 116.6684677041857 121.47569062260962 121.64680476669926 H 0.0 **** 0.06
26241 C 16.25341970614329 11.193411810200516 16.21186816139452 C 0.0 **** -0.24
26242 H 15.953782399758836 10.915962485244712 17.22337871118001 H 0.0 **** 0.06
26243 H 16.424847179040484 10.291163591049255 15.624251811058777 H 0.0 **** 0.06
26244 H 17.17026910033701 11.78023171083187 16.252913711488652 H 0.0 **** 0.06
26245 H 15.4634844252667 11.784928157910478 15.749042225119254 H 0.0 **** 0.06
26246 C 151.082671864281 89.37998581191934 156.82397441804727 C 0.0 **** -0.24
26247 H 151.11886851650056 88.33799782082491 156.5063236513622 H 0.0 **** 0.06
26248 H 152.09553542680493 89.7348235185341 157.02030539731732 H 0.0 **** 0.06
26249 H 150.48593573650606 89.46220528920081 157.73210222896142 H 0.0 **** 0.06
26250 H 150.63271666691696 89.98449750139798 156.03670501621116 H 0.0 **** 0.06
26251 C 112.9565018657276 165.2576513602244 17.85221798705541 C 0.0 **** -0.24
26252 H 113.33618728691494 164.98744014416448 18.837208872573058 H 0.0 **** 0.06
26253 H 113.35425532396397 164.5680815257255 17.10729864292381 H 0.0 **** 0.06
26254 H 113.26699238926989 166.2740450457457 17.60974386456178 H 0.0 **** 0.06
26255 H 111.8679595485533 165.2013672823841 17.856206906773224 H 0.0 **** 0.06
26256 C 132.18465066812942 103.14592276050519 123.34819331289967 C 0.0 **** -0.24
26257 H 132.675606404271 104.09101253194711 123.57919755509886 H 0.0 **** 0.06
26258 H 132.51201968019566 102.79555712973803 122.36939832112304 H 0.0 **** 0.06
26259 H 131.10371535508162 103.29106316949526 123.34055551217054 H 0.0 **** 0.06
26260 H 132.44578259251492 102.40730859342614 124.10568351042403 H 0.0 **** 0.06
26261 C 42.697768281103606 57.16806015454948 138.95311681604994 C 0.0 **** -0.24
26262 H 42.48658318275014 56.126914363754835 139.19682663959168 H 0.0 **** 0.06
26263 H 42.12199238497419 57.81921607040307 139.61127203491515 H 0.0 **** 0.06
26264 H 42.42089502427427 57.361867100244396 137.9169531004314 H 0.0 **** 0.06
26265 H 43.761385663828975 57.363402370459525 139.08791167172205 H 0.0 **** 0.06
26266 C 62.1333822752587 45.334943100597286 148.65142654315352 C 0.0 **** -0.24
26267 H 61.2992761342346 44.90090116883299 149.20232464476166 H 0.0 **** 0.06
26268 H 62.0792933637253 45.02618823912178 147.60694387655937 H 0.0 **** 0.06
26269 H 63.07250754072483 44.99099913577302 149.0842180111273 H 0.0 **** 0.06
26270 H 62.08125802326322 46.42275912222128 148.71157298513276 H 0.0 **** 0.06
26271 C 118.67364986052252 143.29786146893883 116.2775001997756 C 0.0 **** -0.24
26272 H 119.11117025624907 142.5329440060197 115.63582787854347 H 0.0 **** 0.06
26273 H 118.10304969795274 142.82077485421053 117.07452341840184 H 0.0 **** 0.06
26274 H 118.01341023597186 143.9328838480027 115.68753716974504 H 0.0 **** 0.06
26275 H 119.46784595724088 143.90486569629923 116.71259286145383 H 0.0 **** 0.06
26276 C 114.33241476418362 136.99660411225477 154.79035000657728 C 0.0 **** -0.24
26277 H 113.67375317114175 136.21015953496968 155.15850216415504 H 0.0 **** 0.06
26278 H 113.74401960672407 137.88511957744623 154.5617158286092 H 0.0 **** 0.06
26279 H 114.83876656779711 136.65342232817494 153.88838865051198 H 0.0 **** 0.06
26280 H 115.07230484334804 137.23796334322242 155.55392226579335 H 0.0 **** 0.06
26281 C 171.32163389066667 48.016607342757865 29.99356877270492 C 0.0 **** -0.24
26282 H 171.1201829844515 47.994198727996476 28.92296027814899 H 0.0 **** 0.06
26283 H 170.46185602529837 48.43628302807873 30.516325447317968 H 0.0 **** 0.06
26284 H 172.19960935306872 48.63208220229477 30.185487829826286 H 0.0 **** 0.06
26285 H 171.50267340328418 47.002207432495155 30.350663627575614 H 0.0 **** 0.06
26286 C 7.2969773446998545 85.2760090820617 55.22637661778052 C 0.0 **** -0.24
26287 H 6.902967048784376 84.60191204425377 54.46513336862121 H 0.0 **** 0.06
26288 H 8.316511962841417 85.5604344896717 54.96568802836171 H 0.0 **** 0.06
26289 H 7.2960593699505125 84.77172247046917 56.19277578963465 H 0.0 **** 0.06
26290 H 6.672477561105666 86.1669951570052 55.28044123286287 H 0.0 **** 0.06
26291 C 59.100609383202084 34.75722565743479 102.95390961242896 C 0.0 **** -0.24
26292 H 59.06875992983849 33.77282560009357 103.42188434587126 H 0.0 **** 0.06
26293 H 59.77366470964613 35.40420992223625 103.51608045871626 H 0.0 **** 0.06
26294 H 58.10036728770602 35.19005915652514 102.94900140316471 H 0.0 **** 0.06
26295 H 59.46015039417472 34.65997807029066 101.92930219216316 H 0.0 **** 0.06
26296 C 79.8603571502767 72.09640778353616 78.46396988937272 C 0.0 **** -0.24
26297 H 80.90572795329453 72.28253788841363 78.21524175061847 H 0.0 **** 0.06
26298 H 79.67132515505897 71.02296783247596 78.45758555496417 H 0.0 **** 0.06
26299 H 79.22123591412372 72.58305857390053 77.728583472058 H 0.0 **** 0.06
26300 H 79.64660771117642 72.49846970877246 79.45440240906925 H 0.0 **** 0.06
26301 C 116.1045975323816 10.622847257871683 137.48477631125812 C 0.0 **** -0.24
26302 H 116.54448919683415 9.646217070165505 137.68682330062126 H 0.0 **** 0.06
26303 H 116.89400385495338 11.33140825166248 137.2337839523849 H 0.0 **** 0.06
26304 H 115.57141106618661 10.97077458865607 138.36956835035653 H 0.0 **** 0.06
26305 H 115.40878285014236 10.542249420171999 136.6500978819687 H 0.0 **** 0.06
26306 C 166.06618944095746 116.20238157476379 21.659823184337 C 0.0 **** -0.24
26307 H 166.19976264247788 117.02208465384047 20.953614817283494 H 0.0 **** 0.06
26308 H 165.1312236923409 116.34012855423066 22.203275127006123 H 0.0 **** 0.06
26309 H 166.89828380956789 116.19230891242188 22.36458677459538 H 0.0 **** 0.06
26310 H 166.03715857946798 115.25747441622835 21.118141702135716 H 0.0 **** 0.06
26311 C 30.85795952121009 172.55277573425465 94.66099217514054 C 0.0 **** -0.24
26312 H 31.930419069628442 172.72778535834357 94.58211693667499 H 0.0 **** 0.06
26313 H 30.61386993882917 172.24567657165866 95.67820040312671 H 0.0 **** 0.06
26314 H 30.56628268164758 171.76681772316897 93.96320936087335 H 0.0 **** 0.06
26315 H 30.32088207132543 173.47038615381518 94.41915309775135 H 0.0 **** 0.06
26316 C 19.139602614321632 149.6388988022258 58.7607040330019 C 0.0 **** -0.24
26317 H 19.50415693086417 150.3948673818746 59.4552159506116 H 0.0 **** 0.06
26318 H 19.403750025293917 148.64795830117836 59.131029937235496 H 0.0 **** 0.06
26319 H 19.59310231259954 149.7952267794174 57.782268162009245 H 0.0 **** 0.06
26320 H 18.055262241052752 149.7175751890038 58.6749532279361 H 0.0 **** 0.06
26321 C 35.8525324690786 62.55054503526114 45.5030999939777 C 0.0 **** -0.24
26322 H 36.06369441466558 62.40675701379803 46.56265641893019 H 0.0 **** 0.06
26323 H 35.97431176118653 63.60332926499528 45.247396322335334 H 0.0 **** 0.06
26324 H 34.82904219841765 62.24106764573767 45.29227877463242 H 0.0 **** 0.06
26325 H 36.542632142067134 61.950133962314624 44.91106946646582 H 0.0 **** 0.06
26326 C 44.99845327774602 36.087779399828804 113.62059233272839 C 0.0 **** -0.24
26327 H 45.539137628322464 35.18648681997132 113.33167140117331 H 0.0 **** 0.06
26328 H 45.6191031647042 36.96253116141554 113.42580715613184 H 0.0 **** 0.06
26329 H 44.75865237497953 36.042581671807795 114.68325968292422 H 0.0 **** 0.06
26330 H 44.07703448749271 36.159526478942325 113.04304065182492 H 0.0 **** 0.06
26331 C 44.10794314107932 12.443781791955843 4.424234091252224 C 0.0 **** -0.24
26332 H 43.789179052483064 11.98505302075096 5.3612034648337925 H 0.0 **** 0.06
26333 H 45.01627122186933 13.02233480380653 4.595297592632605 H 0.0 **** 0.06
26334 H 43.321569665379116 13.101596522913823 4.0560511459143385 H 0.0 **** 0.06
26335 H 44.30652380497463 11.665175210703275 3.687979592957028 H 0.0 **** 0.06
26336 C 150.6076082204177 29.814653612372936 11.002975955969816 C 0.0 **** -0.24
26337 H 150.06602106750023 29.487052555180938 10.11557520737523 H 0.0 **** 0.06
26338 H 150.987562666649 28.9426345500502 11.537399591937458 H 0.0 **** 0.06
26339 H 149.93495030753334 30.373975757141224 11.652552150168276 H 0.0 **** 0.06
26340 H 151.44045504351152 30.450489183505127 10.70643183091542 H 0.0 **** 0.06
26341 C 158.34203247912566 138.29239230405835 115.35058221672313 C 0.0 **** -0.24
26342 H 158.96472038670615 138.38209053152985 116.24148749886311 H 0.0 **** 0.06
26343 H 157.880559665491 139.25540742436033 115.1321905870671 H 0.0 **** 0.06
26344 H 157.56462908655666 137.54748061238004 115.52500918064374 H 0.0 **** 0.06
26345 H 158.95821603422988 137.98367216935816 114.50649758105004 H 0.0 **** 0.06
26346 C 97.92677321682658 132.88282287462667 25.62753473924206 C 0.0 **** -0.24
26347 H 98.28077893902633 133.2619864825835 24.669425631206764 H 0.0 **** 0.06
26348 H 96.8385988510912 132.94012060399336 25.661838068686528 H 0.0 **** 0.06
26349 H 98.34791820856316 133.48485569567765 26.43389980371545 H 0.0 **** 0.06
26350 H 98.24118960461163 131.84591380441125 25.746219619583343 H 0.0 **** 0.06
26351 C 122.14523470478534 97.7499211591149 108.84658290210706 C 0.0 **** -0.24
26352 H 122.1726806079997 98.83601117830517 108.76447109253292 H 0.0 **** 0.06
26353 H 121.25578713048938 97.37011097478307 108.34402801279185 H 0.0 **** 0.06
26354 H 122.11908516177232 97.46474877779286 109.8983866408417 H 0.0 **** 0.06
26355 H 123.03502593911509 97.32873702991739 108.37762800031359 H 0.0 **** 0.06
26356 C 97.11738483058468 111.5362655178678 108.41708845272382 C 0.0 **** -0.24
26357 H 98.10768187017987 111.5816402490085 107.9656462651522 H 0.0 **** 0.06
26358 H 97.21038492316478 111.58365327063115 109.50233477688113 H 0.0 **** 0.06
26359 H 96.6329546607725 110.60086699207449 108.13457786651213 H 0.0 **** 0.06
26360 H 96.51830031880434 112.37646186349826 108.06576803216461 H 0.0 **** 0.06
26361 C 55.00861631392711 166.17539015068576 76.92461952174709 C 0.0 **** -0.24
26362 H 54.940191501823094 167.25783465815027 77.03549843769069 H 0.0 **** 0.06
26363 H 54.83979269737961 165.6999052401564 77.89036889286703 H 0.0 **** 0.06
26364 H 55.99891557706526 165.90971470775813 76.55550423181309 H 0.0 **** 0.06
26365 H 54.25401674374105 165.83581746028298 76.2151901317951 H 0.0 **** 0.06
26366 C 171.2383541645761 145.95100372950753 171.3350237289892 C 0.0 **** -0.24
26367 H 171.29055277465147 146.5630149395583 170.43431912623066 H 0.0 **** 0.06
26368 H 171.284517388681 144.89700456708294 171.0604369177912 H 0.0 **** 0.06
26369 H 170.30211092065593 146.15079610247437 171.8561597760097 H 0.0 **** 0.06
26370 H 172.077152696249 146.19326700269994 171.9881046840976 H 0.0 **** 0.06
26371 C 104.07344122380059 87.83110693202713 166.6097484100682 C 0.0 **** -0.24
26372 H 103.43089149879063 87.14903316512817 166.05382990386616 H 0.0 **** 0.06
26373 H 104.26959553316325 88.71839634168651 166.00677394134573 H 0.0 **** 0.06
26374 H 105.01563787155612 87.33404667308923 166.8419418168037 H 0.0 **** 0.06
26375 H 103.57842971788844 88.12239376100507 167.5361925689636 H 0.0 **** 0.06
26376 C 106.80510711310899 151.22694455768234 123.19787758357944 C 0.0 **** -0.24
26377 H 105.83226903167912 151.0470021842 122.74052652512097 H 0.0 **** 0.06
26378 H 107.59156979070298 150.8811776527494 122.52607707352973 H 0.0 **** 0.06
26379 H 106.86882762874205 150.68492320078897 124.14142394188269 H 0.0 **** 0.06
26380 H 106.92835249977992 152.29426242864596 123.38278927731966 H 0.0 **** 0.06
26381 C 94.18128437574057 162.6398629032068 53.193939071528135 C 0.0 **** -0.24
26382 H 94.22822109708864 161.55296980183783 53.25963160151467 H 0.0 **** 0.06
26383 H 93.32732708931593 162.93054927543682 52.58275698069821 H 0.0 **** 0.06
26384 H 95.09892141525768 163.015111227285 52.74056819387148 H 0.0 **** 0.06
26385 H 94.07280463476195 163.0587299167592 54.193829427981115 H 0.0 **** 0.06
26386 C 124.47354068270681 29.33050139605632 129.95011992088652 C 0.0 **** -0.24
26387 H 124.08132027725549 30.341845262723865 130.05245708251687 H 0.0 **** 0.06
26388 H 124.53750459391205 28.86395397155428 130.93370943618297 H 0.0 **** 0.06
26389 H 125.46531400282873 29.36969710661043 129.50086327764654 H 0.0 **** 0.06
26390 H 123.80868664928238 28.746072746190094 129.31359618168653 H 0.0 **** 0.06
26391 C 108.24128466046062 34.62196818110816 131.60581797274747 C 0.0 **** -0.24
26392 H 109.23755915866667 34.97327151396216 131.33307387877323 H 0.0 **** 0.06
26393 H 107.99700257370296 34.96959621561669 132.60960838765394 H 0.0 **** 0.06
26394 H 108.22271275380797 33.53244651582935 131.58295303807466 H 0.0 **** 0.06
26395 H 107.5119521619165 35.01279810950088 130.89715569464488 H 0.0 **** 0.06
26396 C 57.33144187647662 36.77565970174547 52.41130943857786 C 0.0 **** -0.24
26397 H 56.55007324629881 37.34688639582805 52.91138871191845 H 0.0 **** 0.06
26398 H 57.915868042680046 36.23278215558025 53.154686350272 H 0.0 **** 0.06
26399 H 57.98366655020722 37.45514396640391 51.862792993728306 H 0.0 **** 0.06
26400 H 56.878307572252325 36.06756401914285 51.71751768961643 H 0.0 **** 0.06
26401 C 131.07404487322268 76.81928850116128 133.20486861986046 C 0.0 **** -0.24
26402 H 130.2989296848111 76.81476376584641 132.43838302790516 H 0.0 **** 0.06
26403 H 132.05381920192792 76.85752967138019 132.72895365109264 H 0.0 **** 0.06
26404 H 130.99645666586255 75.9120693211358 133.80430554110836 H 0.0 **** 0.06
26405 H 130.9463354544424 77.69072330151653 133.84601122563978 H 0.0 **** 0.06
26406 C 54.09275894481222 48.47136498569378 82.28238755478617 C 0.0 **** -0.24
26407 H 54.85517619628344 49.08242568049812 82.76656518220616 H 0.0 **** 0.06
26408 H 53.71049826633531 47.73855907644328 82.99286025123399 H 0.0 **** 0.06
26409 H 54.530108344358 47.95508440173259 81.42771565783664 H 0.0 **** 0.06
26410 H 53.27725557156586 49.10934596609712 81.94381900552429 H 0.0 **** 0.06
26411 C 34.77470768060263 55.416032878866005 18.94045330524984 C 0.0 **** -0.24
26412 H 34.0906199253204 54.76704498525851 18.39427675469021 H 0.0 **** 0.06
26413 H 35.26884097071215 54.84248819386619 19.72526920569996 H 0.0 **** 0.06
26414 H 34.216037908034764 56.23836268523432 19.38717352424778 H 0.0 **** 0.06
26415 H 35.522672180187556 55.8141126168975 18.255333759233217 H 0.0 **** 0.06
26416 C 47.962773473092625 54.56939777308503 122.17946234274947 C 0.0 **** -0.24
26417 H 48.881306891521604 54.68990442348411 121.60519699574715 H 0.0 **** 0.06
26418 H 48.01467281264701 55.18369191703029 123.07920641182776 H 0.0 **** 0.06
26419 H 47.84473725936414 53.52270829912909 122.46010230159825 H 0.0 **** 0.06
26420 H 47.112286096363675 54.881090284350805 121.57449115343644 H 0.0 **** 0.06
26421 C 59.034144251259775 35.80793925817824 122.49182407315521 C 0.0 **** -0.24
26422 H 59.349994667830885 36.71487489839075 123.00688273900343 H 0.0 **** 0.06
26423 H 59.4241615251328 35.81323917745581 121.4740295848573 H 0.0 **** 0.06
26424 H 57.945781275926194 35.766304884733586 122.46447873500549 H 0.0 **** 0.06
26425 H 59.417471907392056 34.936411571489785 123.02401448060229 H 0.0 **** 0.06
26426 C 143.29202217899618 140.5142178526416 145.65576205788375 C 0.0 **** -0.24
26427 H 144.12576888766617 140.85134527893192 146.27146872758811 H 0.0 **** 0.06
26428 H 142.51831789434354 140.0880032634055 146.29444115668474 H 0.0 **** 0.06
26429 H 143.64235088874744 139.75632784443846 144.95448341253592 H 0.0 **** 0.06
26430 H 142.88254909842217 141.35914980536404 145.1027584804045 H 0.0 **** 0.06
26431 C 149.75704577521327 152.44282490432334 166.7862051704717 C 0.0 **** -0.24
26432 H 149.12858789913642 152.91061103150446 167.54457516245282 H 0.0 **** 0.06
26433 H 149.34075263788452 152.6383665545788 165.7981683988429 H 0.0 **** 0.06
26434 H 149.79488521774894 151.36737115519156 166.95888576598384 H 0.0 **** 0.06
26435 H 150.7641358221974 152.85488581926816 166.84491298107412 H 0.0 **** 0.06
26436 C 80.07368816113222 13.843092181867448 77.3642560025019 C 0.0 **** -0.24
26437 H 79.83743319608087 14.330654718922808 76.41800414809163 H 0.0 **** 0.06
26438 H 79.17115323576922 13.772527416954496 77.97140796840308 H 0.0 **** 0.06
26439 H 80.82496058940451 14.426551525049945 77.8965267227545 H 0.0 **** 0.06
26440 H 80.4605901271431 12.842467441009859 77.16982298136813 H 0.0 **** 0.06
26441 C 164.8950877678367 53.836695955619575 67.54792317448315 C 0.0 **** -0.24
26442 H 165.5861915437929 53.06337658806328 67.21370634281381 H 0.0 **** 0.06
26443 H 164.68488846438544 53.70279301909608 68.60867546379454 H 0.0 **** 0.06
26444 H 163.9666625249977 53.7625391476376 66.98065290920556 H 0.0 **** 0.06
26445 H 165.34164889688722 54.81770743869794 67.38550453245423 H 0.0 **** 0.06
26446 C 101.30099635111148 72.70849114638156 53.15453020241581 C 0.0 **** -0.24
26447 H 100.41649363267115 72.4561592987938 53.738807315654924 H 0.0 **** 0.06
26448 H 101.99155461126915 73.28544350948289 53.77071563076967 H 0.0 **** 0.06
26449 H 101.00591690762931 73.30111368808957 52.28750143504196 H 0.0 **** 0.06
26450 H 101.78917670781601 71.79329901222701 52.82080957289395 H 0.0 **** 0.06
26451 C 32.02745996877509 41.465996387188454 166.78812996221805 C 0.0 **** -0.24
26452 H 31.56541123447026 40.480847746361434 166.71874460571115 H 0.0 **** 0.06
26453 H 31.713228432792747 41.95097847817428 167.71169537152497 H 0.0 **** 0.06
26454 H 31.72078396304269 42.07193026607234 165.9349727818927 H 0.0 **** 0.06
26455 H 33.112381133539344 41.35805640077572 166.78477918011882 H 0.0 **** 0.06
26456 C 40.61668731524139 10.966320316489544 40.167641615782 C 0.0 **** -0.24
26457 H 40.539546262223666 10.022742039196402 40.70815941131764 H 0.0 **** 0.06
26458 H 39.829103739150156 11.019848687549455 39.416708210012274 H 0.0 **** 0.06
26459 H 41.589532209962755 11.025232698870127 39.67845825788754 H 0.0 **** 0.06
26460 H 40.51099522916391 11.794992185928038 40.86708301602485 H 0.0 **** 0.06
26461 C 115.73349173583023 109.47470376633513 24.839675272631865 C 0.0 **** -0.24
26462 H 115.29940152514624 109.62665026604122 23.85106606941889 H 0.0 **** 0.06
26463 H 115.2038811150681 110.08929943854778 25.567293938067877 H 0.0 **** 0.06
26464 H 116.7856384329933 109.75809012178274 24.821740018057255 H 0.0 **** 0.06
26465 H 115.64402860448865 108.42455333756536 25.11764399326188 H 0.0 **** 0.06
26466 C 145.64464153602017 44.26769714088131 157.51697709231746 C 0.0 **** -0.24
26467 H 144.94704438951726 44.137698469658716 156.68955352871237 H 0.0 **** 0.06
26468 H 146.5483867565682 44.758936672773245 157.15581439345513 H 0.0 **** 0.06
26469 H 145.90115201555022 43.292859282459304 157.93225618108218 H 0.0 **** 0.06
26470 H 145.18007650005669 44.88067660735375 158.28929223795555 H 0.0 **** 0.06
26471 C 86.14717381244452 55.56462110310633 154.0465841440829 C 0.0 **** -0.24
26472 H 86.08483352221856 55.06504234794522 153.07958416826023 H 0.0 **** 0.06
26473 H 86.46351892490924 56.59742925903055 153.90072371007125 H 0.0 **** 0.06
26474 H 86.87044027405773 55.0478481384888 154.6767726010717 H 0.0 **** 0.06
26475 H 85.16884198099814 55.547890793711815 154.5273066426708 H 0.0 **** 0.06
26476 C 77.28722117597653 22.02122691349217 120.2722834758313 C 0.0 **** -0.24
26477 H 77.21631519022742 22.323641384272292 121.31744233200766 H 0.0 **** 0.06
26478 H 78.33097698707695 21.832318533733144 120.01905700103853 H 0.0 **** 0.06
26479 H 76.8976375434757 22.8163409519739 119.63719259861747 H 0.0 **** 0.06
26480 H 76.70491778901354 21.114186369978853 120.11620225098636 H 0.0 **** 0.06
26481 C 154.59355231697754 28.515502527512965 161.56204670907758 C 0.0 **** -0.24
26482 H 155.17612748523214 27.655197278047538 161.8933415458162 H 0.0 **** 0.06
26483 H 154.60814286108385 28.566490624395584 160.47287842874377 H 0.0 **** 0.06
26484 H 155.02622176651136 29.426912035777463 161.9744191567991 H 0.0 **** 0.06
26485 H 153.56578851295455 28.412765329155306 161.90808973276444 H 0.0 **** 0.06
26486 C 153.56979189094034 109.6418832165858 7.646438738134016 C 0.0 **** -0.24
26487 H 152.84270214293343 108.92426896215812 8.024731517622413 H 0.0 **** 0.06
26488 H 153.58410169297738 109.60407024269824 6.557161640617515 H 0.0 **** 0.06
26489 H 154.5583776711823 109.3956528471239 8.032986179289395 H 0.0 **** 0.06
26490 H 153.29270292384848 110.64534111241608 7.971211228989802 H 0.0 **** 0.06
26491 C 6.622977566112127 95.81025133315177 129.38690942450881 C 0.0 **** -0.24
26492 H 7.583712080809391 95.3180886026108 129.5402757904868 H 0.0 **** 0.06
26493 H 6.0497117208551 95.26329115125804 128.63835413864902 H 0.0 **** 0.06
26494 H 6.788866070937104 96.83087517509782 129.0436017885612 H 0.0 **** 0.06
26495 H 6.0704873729973485 95.82821550205895 130.32680680430207 H 0.0 **** 0.06
26496 C 51.99321538413574 103.75705316269423 28.35726001940185 C 0.0 **** -0.24
26497 H 52.86844501456801 103.31701525293371 28.83540322179732 H 0.0 **** 0.06
26498 H 51.21511819599061 102.99979916791264 28.25827338404258 H 0.0 **** 0.06
26499 H 52.26769008574718 104.12861967538052 27.369852728893363 H 0.0 **** 0.06
26500 H 51.62331950336221 104.5813842138208 28.965867859251148 H 0.0 **** 0.06
26501 C 84.95999186608566 17.719403616902156 160.04431684386822 C 0.0 **** -0.24
26502 H 85.43681385824925 17.772273140849727 161.02328354309316 H 0.0 **** 0.06
26503 H 84.20976004044724 16.92825963658771 160.049072275626 H 0.0 **** 0.06
26504 H 85.71157803032338 17.503078260383248 159.28524520276488 H 0.0 **** 0.06
26505 H 84.48170164615328 18.672771260831915 159.8208783245809 H 0.0 **** 0.06
26506 C 151.7648656498189 70.68656877871285 83.91229865092026 C 0.0 **** -0.24
26507 H 150.83186889668224 70.56891294095624 84.4637298396172 H 0.0 **** 0.06
26508 H 151.7744018592419 71.65837763314761 83.41774044020462 H 0.0 **** 0.06
26509 H 151.8479044402764 69.89790488844733 83.16509922165761 H 0.0 **** 0.06
26510 H 152.60574363721594 70.62271500650832 84.60296795904901 H 0.0 **** 0.06
26511 C 61.320255163962884 166.55406189794368 152.5353038159878 C 0.0 **** -0.24
26512 H 60.76203579748358 167.44034157780777 152.8377631791508 H 0.0 **** 0.06
26513 H 62.11082068844843 166.35879287079797 153.2606274504534 H 0.0 **** 0.06
26514 H 61.76088032095413 166.72137853750084 151.55316240034733 H 0.0 **** 0.06
26515 H 60.64717108528504 165.69843010270793 152.49225491043657 H 0.0 **** 0.06
26516 C 171.05197344656932 59.40045716277382 55.1871409048274 C 0.0 **** -0.24
26517 H 171.26535859443274 59.97772636720106 54.28860366322047 H 0.0 **** 0.06
26518 H 171.3215688509409 59.98490581733404 56.06768864101372 H 0.0 **** 0.06
26519 H 171.63231326204283 58.47685565718717 55.17161036801163 H 0.0 **** 0.06
26520 H 169.98916547579674 59.16127993930621 55.22144328966459 H 0.0 **** 0.06
26521 C 14.21507518262299 31.021976070681887 83.33433442017783 C 0.0 **** -0.24
26522 H 13.968760057547627 31.622520963382556 84.21032922181796 H 0.0 **** 0.06
26523 H 13.472452540541582 30.233019090633547 83.21451503282329 H 0.0 **** 0.06
26524 H 15.201256050662465 30.57715253349943 83.46445928471381 H 0.0 **** 0.06
26525 H 14.21740566791172 31.657607664979025 82.44831283063606 H 0.0 **** 0.06
26526 C 139.35710504723906 3.171091568498582 138.2303321158609 C 0.0 **** -0.24
26527 H 138.62390339032297 3.3080429016908823 137.4353875564538 H 0.0 **** 0.06
26528 H 139.79410259661196 4.1346087696964915 138.49242928820988 H 0.0 **** 0.06
26529 H 140.14325936930584 2.4970032301418215 137.88648687373714 H 0.0 **** 0.06
26530 H 138.86911504096338 2.743412681699695 139.10516161936084 H 0.0 **** 0.06
26531 C 30.37784695130381 20.05027199914292 56.04965998206694 C 0.0 **** -0.24
26532 H 29.751919566934745 20.81500964505159 55.589767138395345 H 0.0 **** 0.06
26533 H 31.104301321334134 19.689982260886723 55.32118860930244 H 0.0 **** 0.06
26534 H 29.753222280621074 19.22068170993481 56.38083237888077 H 0.0 **** 0.06
26535 H 30.90080097035164 20.475067189212325 56.90609579767042 H 0.0 **** 0.06
26536 C 30.35011965828636 38.30783924838427 148.79851367778934 C 0.0 **** -0.24
26537 H 30.364959413061342 37.73045599061244 147.8746757529065 H 0.0 **** 0.06
26538 H 29.764990996686805 37.776197033101724 149.54913688496225 H 0.0 **** 0.06
26539 H 29.898455316752177 39.28270657343269 148.6096876738091 H 0.0 **** 0.06
26540 H 31.36943926176741 38.44277766206102 149.15898743443205 H 0.0 **** 0.06
26541 C 32.18642426776309 106.37797968058726 140.46501040328013 C 0.0 **** -0.24
26542 H 32.6622188914327 106.38512401987353 141.44596689386103 H 0.0 **** 0.06
26543 H 31.660017914354313 107.31944822253112 140.30990880928786 H 0.0 **** 0.06
26544 H 31.47860698884594 105.55133176132739 140.41058540672464 H 0.0 **** 0.06
26545 H 32.94782329316784 106.25559198356729 139.69360389081643 H 0.0 **** 0.06
26546 C 127.99943028441555 36.60509669239502 25.928315402682884 C 0.0 **** -0.24
26547 H 127.19949928425518 37.34040915487884 25.838025979503875 H 0.0 **** 0.06
26548 H 127.65690161256936 35.76985446261216 26.538501184766176 H 0.0 **** 0.06
26549 H 128.86641955178382 37.06874442836403 26.398552111918 H 0.0 **** 0.06
26550 H 128.27392797041034 36.24486955973106 24.937250522617248 H 0.0 **** 0.06
26551 C 142.46731356181533 142.7007569945593 59.886084070164785 C 0.0 **** -0.24
26552 H 141.98338117745274 142.6695974586709 58.91053464499359 H 0.0 **** 0.06
26553 H 142.8039609222702 143.717052388653 60.092683763129145 H 0.0 **** 0.06
26554 H 143.32517911027773 142.02736894241548 59.888194271657156 H 0.0 **** 0.06
26555 H 141.75916125037938 142.38917493077128 60.653200147692374 H 0.0 **** 0.06
26556 C 24.19586797292562 76.97653198121905 14.12441332194311 C 0.0 **** -0.24
26557 H 24.044382568664318 76.70623586247198 13.079653373654963 H 0.0 **** 0.06
26558 H 23.49993979245714 76.41508048261788 14.74858268685955 H 0.0 **** 0.06
26559 H 24.018217146319707 78.0438971591298 14.252315316619587 H 0.0 **** 0.06
26560 H 25.219015349702957 76.74035102873856 14.415684964753552 H 0.0 **** 0.06
26561 C 16.14821507739547 74.95550765097855 122.82753093169026 C 0.0 **** -0.24
26562 H 15.361456628566117 75.58408596945051 122.41082646123496 H 0.0 **** 0.06
26563 H 15.84246603634221 73.91005947203104 122.77707462540329 H 0.0 **** 0.06
26564 H 16.322291503706488 75.23333764672994 123.86681629309001 H 0.0 **** 0.06
26565 H 17.06541958120114 75.09449927910933 122.25610868615001 H 0.0 **** 0.06
26566 C 78.68274093264537 150.2406430396619 42.15955269481337 C 0.0 **** -0.24
26567 H 78.19797007595002 150.23013196820278 41.18372438102405 H 0.0 **** 0.06
26568 H 77.93236186946163 150.3895005435379 42.9363177196081 H 0.0 **** 0.06
26569 H 79.40912082726803 151.05217753495938 42.195093927754826 H 0.0 **** 0.06
26570 H 79.19164494205387 149.28965633583618 42.322203336325586 H 0.0 **** 0.06
26571 C 37.99481925276339 117.20352616290944 169.7341985658768 C 0.0 **** -0.24
26572 H 38.883241144926416 117.58230174577096 169.22927998498415 H 0.0 **** 0.06
26573 H 37.491965261551115 116.48210176204958 169.08995723715077 H 0.0 **** 0.06
26574 H 37.31956219279493 118.03185463099322 169.9505017301202 H 0.0 **** 0.06
26575 H 38.285148389958934 116.71973645271504 170.6660460071355 H 0.0 **** 0.06
26576 C 64.38086840131693 140.83632268639303 78.07725126395758 C 0.0 **** -0.24
26577 H 64.65653543137626 141.55377064969917 77.30419867843975 H 0.0 **** 0.06
26578 H 65.06933944759977 139.99224205806973 78.05156724145547 H 0.0 **** 0.06
26579 H 63.36527011866495 140.48348020240797 77.89899166690395 H 0.0 **** 0.06
26580 H 64.43244309310253 141.31803073891592 79.05421319657296 H 0.0 **** 0.06
26581 C 137.99697082111118 23.697468230171452 167.14507684728795 C 0.0 **** -0.24
26582 H 138.97773289847686 23.923763004149606 167.56461306282662 H 0.0 **** 0.06
26583 H 137.22234117787485 24.094780825694265 167.80018735221543 H 0.0 **** 0.06
26584 H 137.8802535356677 22.616789257824138 167.0570697415408 H 0.0 **** 0.06
26585 H 137.9099701459224 24.153389749402848 166.15935801965887 H 0.0 **** 0.06
26586 C 151.94892478969035 43.98665091019805 31.309642126509374 C 0.0 **** -0.24
26587 H 152.77059028933886 44.48271154569571 31.82684697433868 H 0.0 **** 0.06
26588 H 151.69325630024133 44.54944116521426 30.412001368434716 H 0.0 **** 0.06
26589 H 151.08136838528432 43.93817380633675 31.968372772307447 H 0.0 **** 0.06
26590 H 152.251230086059 42.977133196314654 31.032655386818305 H 0.0 **** 0.06
26591 C 54.22434815188177 131.3685542489438 67.94776588064146 C 0.0 **** -0.24
26592 H 53.78411803557577 130.47866961595417 67.49762259686047 H 0.0 **** 0.06
26593 H 53.47120592234472 131.88157263176433 68.54760099544433 H 0.0 **** 0.06
26594 H 54.579483727036575 132.03469579304036 67.16224610487534 H 0.0 **** 0.06
26595 H 55.06022856372948 131.07902279920992 68.58421198783151 H 0.0 **** 0.06
26596 C 101.19909506408263 56.73599825093481 53.5455344032538 C 0.0 **** -0.24
26597 H 101.69769902004745 57.67688352129011 53.31030851424424 H 0.0 **** 0.06
26598 H 100.95803580253906 56.2121324361259 52.62060779880909 H 0.0 **** 0.06
26599 H 100.28244365656468 56.93943835132495 54.09890814757094 H 0.0 **** 0.06
26600 H 101.86042065370873 56.11754903153951 54.15212504251163 H 0.0 **** 0.06
26601 C 112.12032559488622 122.89278199524867 139.47472843916066 C 0.0 **** -0.24
26602 H 112.64166910384827 122.11423680753407 140.02985587082358 H 0.0 **** 0.06
26603 H 111.07504420236796 122.9209834309394 139.78305891922582 H 0.0 **** 0.06
26604 H 112.17813418560988 122.67962836693414 138.40719347902842 H 0.0 **** 0.06
26605 H 112.58632539108672 123.85714771526523 139.67769676185975 H 0.0 **** 0.06
26606 C 86.35798238191634 159.3261385537903 169.64829293823115 C 0.0 **** -0.24
26607 H 86.67796725128456 158.72591291408537 168.79698686533928 H 0.0 **** 0.06
26608 H 87.08716656987218 160.1157232145561 169.830602226454 H 0.0 **** 0.06
26609 H 86.28106599754068 158.69159201873572 170.53118463520462 H 0.0 **** 0.06
26610 H 85.38570701527318 159.77007077714597 169.43504901461586 H 0.0 **** 0.06
26611 C 61.7567857799267 111.93097964176576 106.18564077513707 C 0.0 **** -0.24
26612 H 61.22063897641496 112.08354892851156 107.1228032093133 H 0.0 **** 0.06
26613 H 61.30471193644004 111.10282044410786 105.63995060166923 H 0.0 **** 0.06
26614 H 62.800044539147905 111.70079397023056 106.39777482403127 H 0.0 **** 0.06
26615 H 61.69923992222252 112.83745292123837 105.58314110681187 H 0.0 **** 0.06
26616 C 40.852360932768406 135.4463865608607 77.99230713532032 C 0.0 **** -0.24
26617 H 40.50121085668829 134.44875046486268 78.2547514363376 H 0.0 **** 0.06
26618 H 41.28854321218445 135.4270454688868 76.99359239871053 H 0.0 **** 0.06
26619 H 41.60580252387449 135.76709101783882 78.71229368209269 H 0.0 **** 0.06
26620 H 40.01296991981877 136.14191860635353 78.00985995242587 H 0.0 **** 0.06
26621 C 37.14536218890467 17.31920374287182 146.79133467453627 C 0.0 **** -0.24
26622 H 36.41390158818548 16.53769563651582 146.5856123992311 H 0.0 **** 0.06
26623 H 37.1839636902786 17.506271214664025 147.8649802868033 H 0.0 **** 0.06
26624 H 36.855478775955135 18.23302157203983 146.27307918221064 H 0.0 **** 0.06
26625 H 38.127201479028926 16.99944960820949 146.44187209518057 H 0.0 **** 0.06
26626 C 170.6634621162608 75.91538731541402 61.37098136709264 C 0.0 **** -0.24
26627 H 169.87959465207126 76.35431788219927 61.98748596200761 H 0.0 **** 0.06
26628 H 170.32918523408003 74.94990864828281 60.99201952520718 H 0.0 **** 0.06
26629 H 171.56305868889189 75.77845713067677 61.97043720000289 H 0.0 **** 0.06
26630 H 170.88200989 76.57886560049735 60.533982781152645 H 0.0 **** 0.06
26631 C 83.34051078496998 64.5654226138264 129.63424960107727 C 0.0 **** -0.24
26632 H 82.60514561597915 64.14618406391749 130.32071612024276 H 0.0 **** 0.06
26633 H 84.15909475000672 63.85830330783543 129.50300272480592 H 0.0 **** 0.06
26634 H 83.72822406367641 65.49811863536513 130.04295696229127 H 0.0 **** 0.06
26635 H 82.8685306015227 64.75977895649442 128.67097003981547 H 0.0 **** 0.06
26636 C 5.137994946975994 75.21043235233769 23.862333992751395 C 0.0 **** -0.24
26637 H 5.988896737332084 75.52638175560354 24.467053219339164 H 0.0 **** 0.06
26638 H 4.582649127957438 76.08727294890069 23.531017309565847 H 0.0 **** 0.06
26639 H 4.486440539895028 74.57103807199255 24.458845538178913 H 0.0 **** 0.06
26640 H 5.495719415221487 74.65551253220183 22.994342969284666 H 0.0 **** 0.06
26641 C 107.06008286081851 72.65348625360303 73.4025823222104 C 0.0 **** -0.24
26642 H 106.51846079334186 73.32122005451787 74.0716139033089 H 0.0 **** 0.06
26643 H 106.35151516129767 72.01283742756107 72.87713765761141 H 0.0 **** 0.06
26644 H 107.74654305922658 72.03671734631934 73.98196360772924 H 0.0 **** 0.06
26645 H 107.62404008464819 73.24240587984198 72.6784461882458 H 0.0 **** 0.06
26646 C 15.485039669737773 5.250082874463544 96.75540414064659 C 0.0 **** -0.24
26647 H 15.109889292336675 4.597634042904303 97.54448710766147 H 0.0 **** 0.06
26648 H 15.961189297282345 4.646480456641882 95.98228263849691 H 0.0 **** 0.06
26649 H 16.212402617712144 5.945266203708968 97.1734501161666 H 0.0 **** 0.06
26650 H 14.656016191383799 5.807612377093335 96.32075016164009 H 0.0 **** 0.06
26651 C 123.8132712722394 43.029907831470794 24.088112457420834 C 0.0 **** -0.24
26652 H 123.67123380242927 43.69888495142679 24.936505136338894 H 0.0 **** 0.06
26653 H 123.39665406179634 43.48861117534007 23.19103690617598 H 0.0 **** 0.06
26654 H 123.30706204410708 42.084651665152634 24.280980677620846 H 0.0 **** 0.06
26655 H 124.87830330438351 42.8490057557281 23.943117999482467 H 0.0 **** 0.06
26656 C 115.3239869606036 72.77207628052012 150.79089891408915 C 0.0 **** -0.24
26657 H 114.8791811668745 72.05632753696877 151.48295003530856 H 0.0 **** 0.06
26658 H 115.93433733349465 73.48411964569881 151.34710559841477 H 0.0 **** 0.06
26659 H 114.53339011581994 73.30477409247425 150.2621297170981 H 0.0 **** 0.06
26660 H 115.9487613944431 72.24242406568055 150.07210853624537 H 0.0 **** 0.06
26661 C 146.7797742959553 48.06442229847666 8.884196162985688 C 0.0 **** -0.24
26662 H 146.06265427873734 47.2592438281025 9.048579064965935 H 0.0 **** 0.06
26663 H 146.2762917265741 49.02521761103165 8.994227395938509 H 0.0 **** 0.06
26664 H 147.19249446033916 47.98334569651644 7.879357472489971 H 0.0 **** 0.06
26665 H 147.5841871061258 47.98900465132844 9.615712661947384 H 0.0 **** 0.06
26666 C 151.09527657418772 41.95587143322763 18.13866649731242 C 0.0 **** -0.24
26667 H 150.73835392525217 42.8818036968629 18.590053096355703 H 0.0 **** 0.06
26668 H 150.48601864293295 41.718573913929845 17.265825801322997 H 0.0 **** 0.06
26669 H 151.02153441557647 41.14587592601879 18.864611102084865 H 0.0 **** 0.06
26670 H 152.13501919840587 42.078018183227925 17.834767437625914 H 0.0 **** 0.06
26671 C 92.9306473909717 136.94395684258566 166.0800724953333 C 0.0 **** -0.24
26672 H 93.5540881457438 137.29451607762672 166.90164963104723 H 0.0 **** 0.06
26673 H 92.997312546469 137.64437442624788 165.24792579333274 H 0.0 **** 0.06
26674 H 91.8954665187527 136.8742813365517 166.41474260246088 H 0.0 **** 0.06
26675 H 93.2744839618855 135.9611725783214 165.7570977350524 H 0.0 **** 0.06
26676 C 119.17630083682207 30.705738122957882 17.168673892042477 C 0.0 **** -0.24
26677 H 118.93879975656375 31.765613008570597 17.07830994299718 H 0.0 **** 0.06
26678 H 119.24865731636854 30.263558997609948 16.17431460825391 H 0.0 **** 0.06
26679 H 118.39155648466638 30.204127337556372 17.73426480885019 H 0.0 **** 0.06
26680 H 120.12827523557542 30.59045997561043 17.68781539915563 H 0.0 **** 0.06
26681 C 85.6211400795514 140.1169600714217 135.09729543792827 C 0.0 **** -0.24
26682 H 85.39120889649512 139.45403011352712 135.93044228070758 H 0.0 **** 0.06
26683 H 86.60618945849721 139.87339126244083 134.69926888035891 H 0.0 **** 0.06
26684 H 85.61443778801211 141.1505838784617 135.44247955560837 H 0.0 **** 0.06
26685 H 84.87130133369948 139.99037755125187 134.31507234754213 H 0.0 **** 0.06
26686 C 170.24346128547768 61.06520859101954 34.274455932913014 C 0.0 **** -0.24
26687 H 171.28045736409922 61.12229781911287 33.94399242469956 H 0.0 **** 0.06
26688 H 170.1001715984628 60.159299562490446 34.86365122284141 H 0.0 **** 0.06
26689 H 169.58611372837106 61.04078552101606 33.40549743037036 H 0.0 **** 0.06
26690 H 170.00783829859176 61.93725741629214 34.88486387264936 H 0.0 **** 0.06
26691 C 66.34625791214955 81.99617282443813 76.66137767919672 C 0.0 **** -0.24
26692 H 67.17938099957661 81.29943203505184 76.56879053674866 H 0.0 **** 0.06
26693 H 66.58761451803855 82.92262519472018 76.14018943848924 H 0.0 **** 0.06
26694 H 66.16645751964893 82.20815087695107 77.71634515180017 H 0.0 **** 0.06
26695 H 65.4522861042866 81.55325553359407 76.22301270670116 H 0.0 **** 0.06
26696 C 75.25004328063852 40.26358871292577 21.959180578851374 C 0.0 **** -0.24
26697 H 75.54725165735545 40.87916434312285 21.109530039385845 H 0.0 **** 0.06
26698 H 75.64626513284759 39.255945018867905 21.832020734639514 H 0.0 **** 0.06
26699 H 74.16271750384607 40.22353546506629 22.014656209020245 H 0.0 **** 0.06
26700 H 75.64592927288673 40.69660083355676 22.87701603736093 H 0.0 **** 0.06
26701 C 166.40312967840106 116.10276905477957 95.1703895162828 C 0.0 **** -0.24
26702 H 167.4146990293308 116.19778853214831 95.56470781844399 H 0.0 **** 0.06
26703 H 165.696700239886 116.54702474346502 95.87146619627478 H 0.0 **** 0.06
26704 H 166.1653317542156 115.04846944036507 95.03249597908996 H 0.0 **** 0.06
26705 H 166.33703525804512 116.61791921176692 94.21223398600219 H 0.0 **** 0.06
26706 C 86.85410594758639 157.1938353466134 89.11782935537818 C 0.0 **** -0.24
26707 H 87.93641116434424 157.1990667285531 88.99441868059104 H 0.0 **** 0.06
26708 H 86.41742069361408 158.00063740806485 88.52975232843079 H 0.0 **** 0.06
26709 H 86.60723002677219 157.33573265610713 90.17031766323646 H 0.0 **** 0.06
26710 H 86.4541537577029 156.23814495105077 88.77749521450335 H 0.0 **** 0.06
26711 C 97.47712106141418 138.0652675230937 170.66351794692676 C 0.0 **** -0.24
26712 H 97.67696635747674 138.95988194970073 170.0738705384625 H 0.0 **** 0.06
26713 H 98.24875604152311 137.95282511187128 171.425787174313 H 0.0 **** 0.06
26714 H 97.47943249005604 137.1922868319389 170.01230484703862 H 0.0 **** 0.06
26715 H 96.50235096803883 138.1571793324234 171.14406524930462 H 0.0 **** 0.06
26716 C 146.3491710215846 107.43343484796671 30.56003286869236 C 0.0 **** -0.24
26717 H 146.0826189240273 106.38437600759383 30.436001897640892 H 0.0 **** 0.06
26718 H 145.81148340903863 107.84684108633368 31.4135564535689 H 0.0 **** 0.06
26719 H 146.0804295649801 107.98423727590716 29.658011842402033 H 0.0 **** 0.06
26720 H 147.42297525583757 107.51818539964387 30.730256329360373 H 0.0 **** 0.06
26721 C 145.71841240578482 20.360276050664226 91.76497181504817 C 0.0 **** -0.24
26722 H 146.6406116462987 20.34135309901569 92.34541789973869 H 0.0 **** 0.06
26723 H 144.94700963194825 19.795822412167922 92.28978517555291 H 0.0 **** 0.06
26724 H 145.89468556681604 19.91277508009665 90.78725467009622 H 0.0 **** 0.06
26725 H 145.38965156999848 21.39240137657839 91.6381930833339 H 0.0 **** 0.06
26726 C 50.40083904771343 66.13077289386675 20.244639152320474 C 0.0 **** -0.24
26727 H 49.687003791284184 66.94633319785004 20.123875601349624 H 0.0 **** 0.06
26728 H 49.91559739747527 65.29630638959964 20.752746848811512 H 0.0 **** 0.06
26729 H 51.248565054781395 66.47498370654347 20.83785643479314 H 0.0 **** 0.06
26730 H 50.75104036288508 65.80621259932599 19.26443057336448 H 0.0 **** 0.06
26731 C 65.24805828994467 37.87360602116084 166.34410747350557 C 0.0 **** -0.24
26732 H 64.24186983025429 37.68401282793204 166.71802510041857 H 0.0 **** 0.06
26733 H 65.97823426884092 37.47111447651608 167.0457190199848 H 0.0 **** 0.06
26734 H 65.39920234428169 38.94858081107921 166.23909843428913 H 0.0 **** 0.06
26735 H 65.37122369800205 37.39291205781032 165.3741137861299 H 0.0 **** 0.06
26736 C 41.629671339906054 31.140688098265628 152.29026777563294 C 0.0 **** -0.24
26737 H 42.27476873872982 31.487115320264877 153.0981945875486 H 0.0 **** 0.06
26738 H 42.10755977042783 30.30566288749995 151.77749712157294 H 0.0 **** 0.06
26739 H 41.46368089681056 31.954301028149047 151.58493074421628 H 0.0 **** 0.06
26740 H 40.67446859981493 30.815456565990218 152.70323070154245 H 0.0 **** 0.06
26741 C 93.57681213841047 94.36974187754362 101.64034660285333 C 0.0 **** -0.24
26742 H 92.94502776829265 95.10852704532499 101.14808331198532 H 0.0 **** 0.06
26743 H 93.44901976599465 94.44504669170425 102.72104338268787 H 0.0 **** 0.06
26744 H 94.62030821566353 94.55555493015581 101.38373081290948 H 0.0 **** 0.06
26745 H 93.29263702915435 93.37073585415908 101.30959192133383 H 0.0 **** 0.06
26746 C 88.97325794925216 98.84880555328516 20.866748832767342 C 0.0 **** -0.24
26747 H 88.86757665400205 99.29590138244475 21.855190013490926 H 0.0 **** 0.06
26748 H 89.67921052790552 98.01971816704955 20.916390055111748 H 0.0 **** 0.06
26749 H 89.34098943955775 99.5979580576086 20.16642017550228 H 0.0 **** 0.06
26750 H 88.00406761877372 98.48104577597837 20.52947588561497 H 0.0 **** 0.06
26751 C 126.58448262925006 161.58543779871866 129.37787755896244 C 0.0 **** -0.24
26752 H 126.1378432189135 161.47422443717835 128.39001977586142 H 0.0 **** 0.06
26753 H 126.22843435447157 162.50783821757773 129.83608522238993 H 0.0 **** 0.06
26754 H 127.67009003241711 161.6213103520695 129.28317312092912 H 0.0 **** 0.06
26755 H 126.30277359555669 160.7366433601764 130.00099729553793 H 0.0 **** 0.06
26756 C 30.65376900569595 51.83349040031976 56.3144187783322 C 0.0 **** -0.24
26757 H 31.667074622041696 51.79694324922683 56.71256595958937 H 0.0 **** 0.06
26758 H 29.94063024175722 51.88686594953391 57.13790610639876 H 0.0 **** 0.06
26759 H 30.462452218742868 50.93588942142897 55.72596948775299 H 0.0 **** 0.06
26760 H 30.54370282928977 52.71357967950367 55.68100068846911 H 0.0 **** 0.06
26761 C 111.76966150934447 164.29615293378015 110.55452834646317 C 0.0 **** -0.24
26762 H 112.46341258735293 163.4736320144758 110.72892435580266 H 0.0 **** 0.06
26763 H 112.1168947302699 165.18284768517856 111.08684850455055 H 0.0 **** 0.06
26764 H 110.77999400066636 164.01955782548538 110.917429904123 H 0.0 **** 0.06
26765 H 111.71923806101131 164.50926063763518 109.48684217436437 H 0.0 **** 0.06
26766 C 133.8718898272603 171.10928791051575 161.13866061647693 C 0.0 **** -0.24
26767 H 134.13956724301764 170.61593462552395 162.07244297412518 H 0.0 **** 0.06
26768 H 133.22299869582554 170.45632246612226 160.5553702939216 H 0.0 **** 0.06
26769 H 134.77619043693883 171.32642578345676 160.56958878040706 H 0.0 **** 0.06
26770 H 133.3489937788411 172.04082890586324 161.3566131297109 H 0.0 **** 0.06
26771 C 33.6022724765193 105.71467709705297 162.58566536142655 C 0.0 **** -0.24
26772 H 32.825431304398336 105.19168242059811 163.14403939900387 H 0.0 **** 0.06
26773 H 34.20016587756862 104.99249770758564 162.03036402411033 H 0.0 **** 0.06
26774 H 34.24269190464159 106.25936850122281 163.27989330252262 H 0.0 **** 0.06
26775 H 33.14044460239248 106.415625395642 161.89130692045632 H 0.0 **** 0.06
26776 C 49.00706066671138 6.85772341988536 157.05826114897138 C 0.0 **** -0.24
26777 H 49.819715225604014 6.148054822649613 156.8994994821217 H 0.0 **** 0.06
26778 H 49.316644496365384 7.606938378894654 157.78737568137734 H 0.0 **** 0.06
26779 H 48.131230219075746 6.327569090908639 157.43210014342418 H 0.0 **** 0.06
26780 H 48.76161886445314 7.346683495726012 156.1152316872682 H 0.0 **** 0.06
26781 C 35.74182461682204 19.709981484968615 55.45677731689153 C 0.0 **** -0.24
26782 H 36.05890504857052 18.72666738031601 55.11117274151371 H 0.0 **** 0.06
26783 H 36.0256581343063 19.835174542973384 56.50215401645286 H 0.0 **** 0.06
26784 H 34.66011500761263 19.797762788495262 55.36068923608076 H 0.0 **** 0.06
26785 H 36.224217352988006 20.479626705687522 54.85481581636873 H 0.0 **** 0.06
26786 C 159.67796737697319 141.96540266309927 118.60663810673142 C 0.0 **** -0.24
26787 H 158.79441404574374 142.58248871997856 118.77249502860627 H 0.0 **** 0.06
26788 H 160.14785219844373 142.25060428709847 117.66572660456609 H 0.0 **** 0.06
26789 H 159.3854153388347 140.91633663138722 118.56374349983435 H 0.0 **** 0.06
26790 H 160.38197905105622 142.1138993405137 119.42499772501805 H 0.0 **** 0.06
26791 C 166.94963122328988 110.02922755766392 90.5746159093033 C 0.0 **** -0.24
26792 H 166.54193706654902 110.79154688840762 89.91045334828402 H 0.0 **** 0.06
26793 H 167.64217273524963 110.49201687563158 91.27746971893288 H 0.0 **** 0.06
26794 H 167.47598732859612 109.27905606292939 89.98456831796005 H 0.0 **** 0.06
26795 H 166.13639654059503 109.55415371291443 91.124008664609 H 0.0 **** 0.06
26796 C 43.4344413838279 129.05150867871765 79.64483796799621 C 0.0 **** -0.24
26797 H 43.6660137125632 128.41109712283173 80.49546447755463 H 0.0 **** 0.06
26798 H 43.23800663257549 130.06441967634652 79.99662894402788 H 0.0 **** 0.06
26799 H 42.55280233190945 128.66746392538886 79.13160858768185 H 0.0 **** 0.06
26800 H 44.280059993455154 129.0633672759006 78.95768026699653 H 0.0 **** 0.06
26801 C 167.8348855621035 157.5186196547915 90.45572775929334 C 0.0 **** -0.24
26802 H 166.75634473956137 157.41589716257062 90.57400269334694 H 0.0 **** 0.06
26803 H 168.33730351484166 156.71768410929923 90.99914074123576 H 0.0 **** 0.06
26804 H 168.15396751269012 158.48203685294402 90.85189333512194 H 0.0 **** 0.06
26805 H 168.09202651379476 157.45726034284849 89.39852970050556 H 0.0 **** 0.06
26806 C 93.32208658558889 52.26209318482904 147.59139618896418 C 0.0 **** -0.24
26807 H 93.0228764016619 53.219004115779114 147.16416099516317 H 0.0 **** 0.06
26808 H 94.28210514002313 52.37321214221765 148.09503606471395 H 0.0 **** 0.06
26809 H 93.41299913779486 51.52206333707471 146.79564814728178 H 0.0 **** 0.06
26810 H 92.57057020316404 51.932359288034434 148.3082998443508 H 0.0 **** 0.06
26811 C 163.57750234393487 102.35622016747476 63.889348825598844 C 0.0 **** -0.24
26812 H 164.14453452154402 101.47839132560821 64.20076855294099 H 0.0 **** 0.06
26813 H 162.5841357994211 102.3238853381624 64.33648587656195 H 0.0 **** 0.06
26814 H 163.4870356830975 102.36311298245766 62.8031432941239 H 0.0 **** 0.06
26815 H 164.09452390823841 103.25706333946286 64.2172381626467 H 0.0 **** 0.06
26816 C 131.28910046111002 148.03261556034155 137.54981267657212 C 0.0 **** -0.24
26817 H 131.48574851334521 148.94305740525382 138.1158942726239 H 0.0 **** 0.06
26818 H 131.60763200859503 147.16736145054938 138.13173035287554 H 0.0 **** 0.06
26819 H 131.84239682495937 148.06224928626796 136.61061504608057 H 0.0 **** 0.06
26820 H 130.22276986992702 147.95772120242404 137.3403847735578 H 0.0 **** 0.06
26821 C 5.978511806897224 65.5812864212703 127.43654889561992 C 0.0 **** -0.24
26822 H 5.129811524443738 66.00218228299491 127.97560426108231 H 0.0 **** 0.06
26823 H 6.065799682503275 64.51944717526521 127.66835797334164 H 0.0 **** 0.06
26824 H 6.891672590565001 66.09532686822757 127.73904522456775 H 0.0 **** 0.06
26825 H 5.827420892184151 65.70849245158058 126.36552821874446 H 0.0 **** 0.06
26826 C 124.99150773141133 129.91067326325273 32.0609334669964 C 0.0 **** -0.24
26827 H 126.04690125530448 129.93195642969943 32.33037304863615 H 0.0 **** 0.06
26828 H 124.68872564042238 128.88274527336998 31.858519853279773 H 0.0 **** 0.06
26829 H 124.83210846997204 130.51925788780264 31.17057914048803 H 0.0 **** 0.06
26830 H 124.39829555994652 130.30873346213872 32.884261825581746 H 0.0 **** 0.06
26831 C 93.5208641313832 103.01458224428407 61.24220349131042 C 0.0 **** -0.24
26832 H 94.06382612236294 102.31836510927656 60.60174802278027 H 0.0 **** 0.06
26833 H 94.13659156369377 103.27079058575433 62.103829380902596 H 0.0 **** 0.06
26834 H 92.59496884236336 102.54961352152597 61.58118460224523 H 0.0 **** 0.06
26835 H 93.28872036393628 103.9189723739675 60.679013492713125 H 0.0 **** 0.06
26836 C 74.24827973920219 19.74042276300787 22.70307624389619 C 0.0 **** -0.24
26837 H 75.16259200452194 20.290988138193086 22.924114769528387 H 0.0 **** 0.06
26838 H 73.73303575871513 19.503032865377634 23.63401118918705 H 0.0 **** 0.06
26839 H 74.49837639087902 18.816642505639038 22.18055168982073 H 0.0 **** 0.06
26840 H 73.59983379051239 20.349821624083575 22.073797245782544 H 0.0 **** 0.06
26841 C 67.05439716889737 17.932926102783256 76.00785621621138 C 0.0 **** -0.24
26842 H 66.88369335692066 17.58423086948278 77.02621421755198 H 0.0 **** 0.06
26843 H 67.17903637501598 19.016052808689437 76.01230699902267 H 0.0 **** 0.06
26844 H 66.20051017203107 17.667753328012395 75.38446903340355 H 0.0 **** 0.06
26845 H 67.95457396878118 17.464537449732518 75.6099152877237 H 0.0 **** 0.06
26846 C 63.547288270615894 28.692499951900245 134.3383338320989 C 0.0 **** -0.24
26847 H 63.80144230758559 29.36688503013714 135.15635381300146 H 0.0 **** 0.06
26848 H 62.47872105819964 28.755910324610184 134.13377965605807 H 0.0 **** 0.06
26849 H 63.805336518574336 27.67094592012596 134.61582549084565 H 0.0 **** 0.06
26850 H 64.10592623101525 28.978781547876864 133.44616472536904 H 0.0 **** 0.06
26851 C 124.68320285256374 91.60092879896291 83.67540161790426 C 0.0 **** -0.24
26852 H 123.84693809284548 91.08595445491858 84.14806307950474 H 0.0 **** 0.06
26853 H 125.0233687245306 91.02668709805539 82.81416773095823 H 0.0 **** 0.06
26854 H 125.49840834770353 91.70132433379223 84.3920535039953 H 0.0 **** 0.06
26855 H 124.36257519032748 92.59058239078121 83.34977013968039 H 0.0 **** 0.06
26856 C 86.71912579949203 116.21862072426995 52.88503792638329 C 0.0 **** -0.24
26857 H 86.8217327299068 115.49482739514019 52.0760006941602 H 0.0 **** 0.06
26858 H 85.77495654565189 116.75289656318844 52.774865518888504 H 0.0 **** 0.06
26859 H 87.54511797315706 116.92800973657125 52.84530991904745 H 0.0 **** 0.06
26860 H 86.73296716946291 115.69775156036113 53.841971513882925 H 0.0 **** 0.06
26861 C 136.34463627588187 48.143002990435974 87.17463744203172 C 0.0 **** -0.24
26862 H 136.16602794069695 48.94914674937159 86.46291032175111 H 0.0 **** 0.06
26863 H 136.34456351868337 48.5461419705035 88.18727416777944 H 0.0 **** 0.06
26864 H 137.30962573020818 47.6812800344899 86.96619214287688 H 0.0 **** 0.06
26865 H 135.5565999714383 47.39485612549011 87.08088097116723 H 0.0 **** 0.06
26866 C 92.97252373141384 20.780647475986967 114.68759983614558 C 0.0 **** -0.24
26867 H 92.99168831130365 20.451626946738685 115.72720189044776 H 0.0 **** 0.06
26868 H 93.93022296784653 21.23440252656644 114.43334464712117 H 0.0 **** 0.06
26869 H 92.1758715882431 21.512331823030735 114.55403877451579 H 0.0 **** 0.06
26870 H 92.79153336786658 19.92382524301746 114.03901266431808 H 0.0 **** 0.06
26871 C 81.69241750878618 47.58461989402764 132.0483882020402 C 0.0 **** -0.24
26872 H 81.04066256725287 47.697700685803596 131.18151310028682 H 0.0 **** 0.06
26873 H 82.44816192982 48.37041247615463 132.037316127406 H 0.0 **** 0.06
26874 H 82.17933158932573 46.610822288361504 132.0118772828463 H 0.0 **** 0.06
26875 H 81.1001765723961 47.66140977328058 132.95989144145076 H 0.0 **** 0.06
26876 C 12.809803222305085 101.43665111031297 5.294794259834248 C 0.0 **** -0.24
26877 H 11.93614696304219 101.59611307197937 5.926894578366074 H 0.0 **** 0.06
26878 H 13.533939054768211 102.23301684241065 5.469603099941622 H 0.0 **** 0.06
26879 H 12.507157721975993 101.44444802152196 4.247983352073106 H 0.0 **** 0.06
26880 H 13.262045415917385 100.47494059330322 5.535270954535747 H 0.0 **** 0.06
26881 C 93.69644067088171 165.3934233549846 108.45851692849843 C 0.0 **** -0.24
26882 H 92.65762978398956 165.64818574119784 108.67322908368479 H 0.0 **** 0.06
26883 H 94.09941508723011 166.09629053741875 107.72827890422312 H 0.0 **** 0.06
26884 H 93.74485078179796 164.38194579142365 108.05467562773379 H 0.0 **** 0.06
26885 H 94.28105716020951 165.44708842372407 109.37684900497445 H 0.0 **** 0.06
26886 C 52.61688444216661 168.87132067414382 144.32257536288807 C 0.0 **** -0.24
26887 H 51.99801340252904 169.26566312355666 143.5165196219137 H 0.0 **** 0.06
26888 H 53.24566221834132 169.668305776662 144.7210016079394 H 0.0 **** 0.06
26889 H 53.246871080010166 168.0695231377651 143.93746274166796 H 0.0 **** 0.06
26890 H 51.9778352035371 168.4829223651343 145.11523543736706 H 0.0 **** 0.06
26891 C 123.46233564213185 10.713073639357546 41.6793009239683 C 0.0 **** -0.24
26892 H 123.01039035664488 9.728453818661045 41.79695906384862 H 0.0 **** 0.06
26893 H 123.129764807437 11.155660933084398 40.740227274477675 H 0.0 **** 0.06
26894 H 124.54764438348519 10.615565684690132 41.67227941605984 H 0.0 **** 0.06
26895 H 123.16080931504828 11.351757326907169 42.50991227980444 H 0.0 **** 0.06
26896 C 85.02874544918342 161.0279601260865 111.40451566384542 C 0.0 **** -0.24
26897 H 86.05800063954149 160.88030686615488 111.07811798950047 H 0.0 **** 0.06
26898 H 84.8737302398111 160.52296498635985 112.35762917293678 H 0.0 **** 0.06
26899 H 84.34831740490966 160.61531712052656 110.65905095247751 H 0.0 **** 0.06
26900 H 84.83455675342447 162.09420158471954 111.52228704008692 H 0.0 **** 0.06
26901 C 172.70119292160626 150.61865141188113 25.564521048185924 C 0.0 **** -0.24
26902 H 173.24626306147283 150.84742293407612 24.648439537958808 H 0.0 **** 0.06
26903 H 173.08268418473483 151.236340543285 26.378203275776514 H 0.0 **** 0.06
26904 H 172.83526978692964 149.56612370598978 25.812992357438105 H 0.0 **** 0.06
26905 H 171.64136627122576 150.8266236571466 25.41760542467682 H 0.0 **** 0.06
26906 C 158.18058596450746 84.69667647895581 110.96395868232554 C 0.0 **** -0.24
26907 H 159.21049783885636 85.04358043711576 110.8815126206679 H 0.0 **** 0.06
26908 H 157.97224410582396 83.98455271630662 110.16475430685065 H 0.0 **** 0.06
26909 H 157.50308064468348 85.54687613758335 110.87917487893276 H 0.0 **** 0.06
26910 H 158.0366183849499 84.21256828448364 111.92991250034368 H 0.0 **** 0.06
26911 C 100.1267415516968 107.07296294714766 11.922582763946046 C 0.0 **** -0.24
26912 H 99.54412598263445 106.15429635054042 11.987828110428033 H 0.0 **** 0.06
26913 H 100.43079546484455 107.23739615043615 10.888544011329955 H 0.0 **** 0.06
26914 H 101.01191985777939 106.98721582726833 12.553134897946777 H 0.0 **** 0.06
26915 H 99.51927362455399 107.91272473905462 12.261301022914942 H 0.0 **** 0.06
26916 C 160.84479358097343 1.2103775103311705 96.12535013730138 C 0.0 **** -0.24
26917 H 161.8671110824905 0.9332826439320456 96.38487581750681 H 0.0 **** 0.06
26918 H 160.85935516588893 2.097362794133744 95.49148400835836 H 0.0 **** 0.06
26919 H 160.2849118609991 1.4232254427178646 97.03576838691384 H 0.0 **** 0.06
26920 H 160.37014505551892 0.38870163077052666 95.59080672696962 H 0.0 **** 0.06
26921 C 97.38752497004833 37.899289163498565 102.37443384624902 C 0.0 **** -0.24
26922 H 96.61306938995295 38.2714283393143 103.04362971977903 H 0.0 **** 0.06
26923 H 97.34799041405071 38.44653429294419 101.4326600046465 H 0.0 **** 0.06
26924 H 97.22559480282484 36.83804207933463 102.18544857025762 H 0.0 **** 0.06
26925 H 98.36480975788143 38.04078246789922 102.8359555396261 H 0.0 **** 0.06
26926 C 145.00904564806868 36.40846253056202 101.13192816448839 C 0.0 **** -0.24
26927 H 145.00974394899308 37.01903822666003 102.03412990442433 H 0.0 **** 0.06
26928 H 144.58700708409015 36.981191239373345 100.30544495682514 H 0.0 **** 0.06
26929 H 144.4072058178333 35.514972658809995 101.29939119370076 H 0.0 **** 0.06
26930 H 146.0309792921408 36.117981743520886 100.88869634392515 H 0.0 **** 0.06
26931 C 146.04395934253776 69.96913079764734 125.78289958472325 C 0.0 **** -0.24
26932 H 146.7001912437001 69.17821038931308 125.4204623221012 H 0.0 **** 0.06
26933 H 146.4872456918145 70.93994173193414 125.55779167579257 H 0.0 **** 0.06
26934 H 145.91439844035966 69.86978435548255 126.86061774959961 H 0.0 **** 0.06
26935 H 145.0732313775722 69.88991294322584 125.291922011162 H 0.0 **** 0.06
26936 C 91.1961514688913 69.65440579176459 119.26630390815859 C 0.0 **** -0.24
26937 H 90.40529653802244 68.94136808267172 119.0324238065559 H 0.0 **** 0.06
26938 H 91.05101056191558 70.56247683734836 118.68092088420863 H 0.0 **** 0.06
26939 H 92.16446983403429 69.2153491874478 119.02221564609374 H 0.0 **** 0.06
26940 H 91.16458437370243 69.89659121438007 120.32822288001893 H 0.0 **** 0.06
26941 C 98.06910485212327 18.26112863574798 112.99314475422125 C 0.0 **** -0.24
26942 H 98.65284517557362 18.076653803319516 113.8948140102689 H 0.0 **** 0.06
26943 H 97.88541954575231 17.316303121697388 112.480298111646 H 0.0 **** 0.06
26944 H 98.62122325392806 18.93055721543135 112.33357684321851 H 0.0 **** 0.06
26945 H 97.11718129360628 18.719408814498166 113.26325404775287 H 0.0 **** 0.06
26946 C 110.87439058884229 96.12316152949336 41.91250430805252 C 0.0 **** -0.24
26947 H 111.32551598829437 97.11218060969844 41.83490722966985 H 0.0 **** 0.06
26948 H 111.65083612011748 95.36233459476153 41.83100642610711 H 0.0 **** 0.06
26949 H 110.14955791254334 95.99075379418275 41.10921172713856 H 0.0 **** 0.06
26950 H 110.3713532306358 96.02808359903017 42.87553329398904 H 0.0 **** 0.06
26951 C 121.25922521466765 170.59478021712664 82.47454403560431 C 0.0 **** -0.24
26952 H 120.53077168825496 170.83078404950317 81.69942803828785 H 0.0 **** 0.06
26953 H 122.24975078078913 170.50998538028557 82.02798932063702 H 0.0 **** 0.06
26954 H 120.99162407106783 169.65134019808298 82.9498478642057 H 0.0 **** 0.06
26955 H 121.26411998547567 171.38886163279528 83.22199434443488 H 0.0 **** 0.06
26956 C 164.30914330306896 83.33183141779554 59.29143771952927 C 0.0 **** -0.24
26957 H 165.34759335245613 83.61508054767862 59.460997707748604 H 0.0 **** 0.06
26958 H 164.20095349300968 82.2540165389026 59.41708511056137 H 0.0 **** 0.06
26959 H 164.0170552377545 83.60966882001556 58.27813610688197 H 0.0 **** 0.06
26960 H 163.6693847891348 83.84770359980982 60.00787343698484 H 0.0 **** 0.06
26961 C 126.63185202629006 172.50969173294945 57.582768373453604 C 0.0 **** -0.24
26962 H 127.53588715321837 173.02934277194083 57.26714606856892 H 0.0 **** 0.06
26963 H 125.88026407676017 172.5773845317172 56.79554511767881 H 0.0 **** 0.06
26964 H 126.24691875600087 172.96978403227226 58.493307039254105 H 0.0 **** 0.06
26965 H 126.86219980559588 171.4617107400946 57.77471348542464 H 0.0 **** 0.06
26966 C 149.42355176528028 7.10446261227375 96.22611190614947 C 0.0 **** -0.24
26967 H 149.22267030286065 7.0701877252914755 97.29701529229175 H 0.0 **** 0.06
26968 H 150.04939443151187 7.968200413648475 96.00152082370249 H 0.0 **** 0.06
26969 H 148.48109760994828 7.187075378999225 95.68317772144121 H 0.0 **** 0.06
26970 H 149.93811137729452 6.192360329490157 95.92391492687199 H 0.0 **** 0.06
26971 C 68.84040351683628 3.9051942649580482 91.26436237905625 C 0.0 **** -0.24
26972 H 68.18744346746574 3.099318278182281 90.92791286173517 H 0.0 **** 0.06
26973 H 68.61160805902605 4.147114197532019 92.30339155834557 H 0.0 **** 0.06
26974 H 68.68088225610695 4.78511727494125 90.64276315698142 H 0.0 **** 0.06
26975 H 69.87978577316909 3.586911747240201 91.185629023907 H 0.0 **** 0.06
26976 C 45.02582916547294 92.11391264477413 3.2621084682456356 C 0.0 **** -0.24
26977 H 45.53822722676816 92.29677126063808 2.3173750932705346 H 0.0 **** 0.06
26978 H 43.99618842244331 92.46511893131554 3.1912474672048035 H 0.0 **** 0.06
26979 H 45.538602832234176 92.64861184052768 4.062000421904919 H 0.0 **** 0.06
26980 H 45.03250392735475 91.0453743253741 3.4767697988104516 H 0.0 **** 0.06
26981 C 153.0616565457463 111.18990945621928 103.31711974762209 C 0.0 **** -0.24
26982 H 152.2597689729448 111.67483592384545 103.87259142841071 H 0.0 **** 0.06
26983 H 153.00051369491854 110.11017983084542 103.46012927903593 H 0.0 **** 0.06
26984 H 154.02411364448722 111.55077622477876 103.67808049094589 H 0.0 **** 0.06
26985 H 152.96124566792645 111.42204614406441 102.25678753383892 H 0.0 **** 0.06
26986 C 59.100753806017565 25.151540052204815 47.83802739633089 C 0.0 **** -0.24
26987 H 58.826840046898326 25.856780259906458 47.0525582868258 H 0.0 **** 0.06
26988 H 58.659084507490604 24.17863970614392 47.622427461154814 H 0.0 **** 0.06
26989 H 58.73060533462791 25.515036246849135 48.796968910472245 H 0.0 **** 0.06
26990 H 60.18564903327973 25.057622945275035 47.87936856030555 H 0.0 **** 0.06
26991 C 136.27227253632205 81.07812352658482 162.86013884795798 C 0.0 **** -0.24
26992 H 136.94028243341288 81.84943176802983 162.47726217174255 H 0.0 **** 0.06
26993 H 135.7094346796546 80.64260887888923 162.03448593938757 H 0.0 **** 0.06
26994 H 135.5822808997188 81.51847300558177 163.5786887854855 H 0.0 **** 0.06
26995 H 136.85967379874813 80.30015420958895 163.35010797596777 H 0.0 **** 0.06
26996 C 38.98472904756386 19.41058754682126 112.19925822831476 C 0.0 **** -0.24
26997 H 38.38282485570254 20.020762152352404 111.52599418385563 H 0.0 **** 0.06
26998 H 39.9420248736661 19.902330148118182 112.37658319611188 H 0.0 **** 0.06
26999 H 39.15603338974324 18.434161486737537 111.7481051434388 H 0.0 **** 0.06
27000 H 38.45855018673301 19.28725410678686 113.14531257444855 H 0.0 **** 0.06
27001 C 119.34487387876871 102.0083996099811 159.52191312456375 C 0.0 **** -0.24
27002 H 118.73198533981511 102.83725907030532 159.87763611924288 H 0.0 **** 0.06
27003 H 118.88381065179345 101.57018790919804 158.63704342958007 H 0.0 **** 0.06
27004 H 119.4242930683071 101.2529799112908 160.30302312204083 H 0.0 **** 0.06
27005 H 120.34003377818962 102.37638278331431 159.26940692032628 H 0.0 **** 0.06
27006 C 78.41871792571835 79.6556206892924 28.485758653959437 C 0.0 **** -0.24
27007 H 78.33731257739808 78.63573276103719 28.107999461981933 H 0.0 **** 0.06
27008 H 78.39513627344269 79.64201330404585 29.575166251846895 H 0.0 **** 0.06
27009 H 77.5838223845852 80.24793321413448 28.111111490195782 H 0.0 **** 0.06
27010 H 79.35677688796606 80.09426923500341 28.14669523781501 H 0.0 **** 0.06
27011 C 43.723269835243514 77.32604133922526 117.71839429306613 C 0.0 **** -0.24
27012 H 43.04158899817605 78.1564951197011 117.53430751066696 H 0.0 **** 0.06
27013 H 43.2358265752265 76.59295171165967 118.36222493179685 H 0.0 **** 0.06
27014 H 44.6237966294583 77.69741327018295 118.20747564192641 H 0.0 **** 0.06
27015 H 43.989514444855615 76.85882350851922 116.77103878889488 H 0.0 **** 0.06
27016 C 34.00914657238519 149.16313997923868 146.27768575741322 C 0.0 **** -0.24
27017 H 32.98549049036711 149.38253652717373 145.97251106244363 H 0.0 **** 0.06
27018 H 34.001431158169055 148.38929219455952 147.04467417814504 H 0.0 **** 0.06
27019 H 34.469231090902724 150.0667568066849 146.67795199218958 H 0.0 **** 0.06
27020 H 34.57784249070022 148.81645603294606 145.41524772521083 H 0.0 **** 0.06
27021 C 54.59848685598021 167.83155999188415 52.519656049251196 C 0.0 **** -0.24
27022 H 54.259226230073395 168.11896048951462 51.52342995832137 H 0.0 **** 0.06
27023 H 54.9295486789737 166.79261356736524 52.50398398468823 H 0.0 **** 0.06
27024 H 53.77802697490833 167.94205521727213 53.2276380630274 H 0.0 **** 0.06
27025 H 55.42598734552578 168.47349110890704 52.81922661382329 H 0.0 **** 0.06
27026 C 0.3335687209080902 18.98049855720751 93.61109135008357 C 0.0 **** -0.24
27027 H -0.7482608236911688 18.897724230960307 93.50322359296223 H 0.0 **** 0.06
27028 H 0.566528002315863 19.496453675437124 94.54291724213573 H 0.0 **** 0.06
27029 H 0.7391030836213872 19.544381809953393 92.77120103845499 H 0.0 **** 0.06
27030 H 0.7744793982391798 17.983618533248062 93.62731438178736 H 0.0 **** 0.06
27031 C 65.1216463671854 29.65364555446331 75.8116391654587 C 0.0 **** -0.24
27032 H 64.53408634878247 29.085543128830324 76.53368353920303 H 0.0 **** 0.06
27033 H 64.45862201197721 30.06863673807483 75.05184495978239 H 0.0 **** 0.06
27034 H 65.85054927507542 28.996695220540843 75.33934695259268 H 0.0 **** 0.06
27035 H 65.63961670487907 30.464760575507214 76.32344707688799 H 0.0 **** 0.06
27036 C 13.275971709816275 40.85100285271824 65.83144083738824 C 0.0 **** -0.24
27037 H 14.204894594587792 41.38308501654757 66.03414999383062 H 0.0 **** 0.06
27038 H 13.470837932861556 39.77874949976916 65.79994315976478 H 0.0 **** 0.06
27039 H 12.872621441154791 41.176338702018754 64.8735701396148 H 0.0 **** 0.06
27040 H 12.555029152119886 41.06628073711241 66.62119047722831 H 0.0 **** 0.06
27041 C 121.88759246242836 134.59979576732434 109.006637512964 C 0.0 **** -0.24
27042 H 121.66396914823048 135.60740276550945 109.35805031043259 H 0.0 **** 0.06
27043 H 121.17930728356976 134.321239299799 108.22665253114752 H 0.0 **** 0.06
27044 H 121.80806249108275 133.89932316139596 109.8381447619308 H 0.0 **** 0.06
27045 H 122.90098363341983 134.57202234013164 108.60494337069443 H 0.0 **** 0.06
27046 C 50.34691031898015 165.45782976690302 3.869295200068393 C 0.0 **** -0.24
27047 H 49.541430413873414 164.8191912752321 4.232641041514938 H 0.0 **** 0.06
27048 H 50.708012734197126 165.07782051140106 2.913399176081583 H 0.0 **** 0.06
27049 H 51.162765189025436 165.4600270609196 4.59182698209159 H 0.0 **** 0.06
27050 H 49.97326747704351 166.47374048739965 3.7391735877640997 H 0.0 **** 0.06
27051 C 1.205773401507031 156.89755461288297 80.0497854013229 C 0.0 **** -0.24
27052 H 1.0569513520124758 156.99181713333766 78.97423402987415 H 0.0 **** 0.06
27053 H 1.372545733963193 157.8852246316104 80.48086095964865 H 0.0 **** 0.06
27054 H 2.0726536041527197 156.26598852389648 80.24268475220204 H 0.0 **** 0.06
27055 H 0.3213078261684359 156.44852285002938 80.5010694493769 H 0.0 **** 0.06
27056 C 87.2712447063526 65.63935779236515 134.38892307288057 C 0.0 **** -0.24
27057 H 87.37084465892735 66.30076585046774 133.52894494364637 H 0.0 **** 0.06
27058 H 87.31059035359561 64.60203063920136 134.05606500942594 H 0.0 **** 0.06
27059 H 86.31788454768565 65.82622267304342 134.8829849150733 H 0.0 **** 0.06
27060 H 88.08610111542407 65.82826071695006 135.08903231499872 H 0.0 **** 0.06
27061 C 17.596566463400677 71.87126992158201 118.33181138047175 C 0.0 **** -0.24
27062 H 18.10245948802077 72.56728107045383 119.00052723761843 H 0.0 **** 0.06
27063 H 17.749364092673147 72.18382262437925 117.29920019726373 H 0.0 **** 0.06
27064 H 16.52974072475007 71.86210582360034 118.55515427187484 H 0.0 **** 0.06
27065 H 18.00598049202327 70.87012393510062 118.47292516464566 H 0.0 **** 0.06
27066 C 149.65018034425512 66.61040672482108 35.20672824455227 C 0.0 **** -0.24
27067 H 149.19345624815634 67.17604783631992 36.019363735388694 H 0.0 **** 0.06
27068 H 150.63889370382842 67.01613370755851 34.99365154889935 H 0.0 **** 0.06
27069 H 149.02613796151056 66.6860301553258 34.31704158798861 H 0.0 **** 0.06
27070 H 149.74090929240487 65.5642468360552 35.49978104348702 H 0.0 **** 0.06
27071 C 29.80922955883335 81.24607660136425 129.30530586835022 C 0.0 **** -0.24
27072 H 29.03854454881082 81.75926113506333 129.88130626965727 H 0.0 **** 0.06
27073 H 30.366388225215246 80.57615221911344 129.9612248917945 H 0.0 **** 0.06
27074 H 30.48912989470432 81.98081308415115 128.87364045566102 H 0.0 **** 0.06
27075 H 29.343071211367317 80.66940045604757 128.50615180635378 H 0.0 **** 0.06
27076 C 1.1755227385107787 35.37550771514992 154.0048992758322 C 0.0 **** -0.24
27077 H 0.1384349291662943 35.66055640537738 153.8301701040627 H 0.0 **** 0.06
27078 H 1.490422874860144 35.73491875159198 154.98449296280245 H 0.0 **** 0.06
27079 H 1.8077498029504113 35.81672656802175 153.2350960434493 H 0.0 **** 0.06
27080 H 1.263555712169648 34.28935095749125 153.96960202454113 H 0.0 **** 0.06
27081 C 93.78672930220262 107.52954270912701 130.92262952996478 C 0.0 **** -0.24
27082 H 94.70520427722778 107.20851827624494 131.4123336988008 H 0.0 **** 0.06
27083 H 93.23932098916902 108.20348003746946 131.58245059076495 H 0.0 **** 0.06
27084 H 93.17056680800505 106.6581000642837 130.7005514120337 H 0.0 **** 0.06
27085 H 94.03046840705036 108.04773947422078 129.99496226330842 H 0.0 **** 0.06
27086 C 129.49248819048998 116.98231562050961 160.46283295586045 C 0.0 **** -0.24
27087 H 128.6892990700687 117.47342149235669 159.91286799076224 H 0.0 **** 0.06
27088 H 129.1974590620468 115.96044912457916 160.7012419795893 H 0.0 **** 0.06
27089 H 129.68851667621072 117.52829402891149 161.38562144415337 H 0.0 **** 0.06
27090 H 130.39471795762108 116.9677553236773 159.85034894349562 H 0.0 **** 0.06
27091 C 120.12426503768143 66.8343628835346 152.5545539838273 C 0.0 **** -0.24
27092 H 121.07209125871384 67.13837708091265 152.99649170775447 H 0.0 **** 0.06
27093 H 120.31408383112887 66.1966875589697 151.6908849473346 H 0.0 **** 0.06
27094 H 119.56981446285994 67.71818258104537 152.23931045478065 H 0.0 **** 0.06
27095 H 119.53996072710504 66.2833832373494 153.2918355449187 H 0.0 **** 0.06
27096 C 167.4181547847272 37.44524260239507 135.4040292145204 C 0.0 **** -0.24
27097 H 167.19809167460195 36.589579646027914 136.04328608726212 H 0.0 **** 0.06
27098 H 167.58544032284811 37.10196285475769 134.38302737647112 H 0.0 **** 0.06
27099 H 168.31232449030722 37.950321831749136 135.7694039479831 H 0.0 **** 0.06
27100 H 166.5767237412465 38.137546699599056 135.42200162227866 H 0.0 **** 0.06
27101 C 22.41430868964659 17.714808829000702 129.5941633869104 C 0.0 **** -0.24
27102 H 23.491207302824762 17.70473715989681 129.42639235415416 H 0.0 **** 0.06
27103 H 22.095677114876167 18.724362542550068 129.8535364794836 H 0.0 **** 0.06
27104 H 22.167595038156918 17.03423224556269 130.40945909498555 H 0.0 **** 0.06
27105 H 21.903129005589506 17.393639270270086 128.68640866203987 H 0.0 **** 0.06
27106 C 78.01068687688085 87.95433903171272 67.38417662225717 C 0.0 **** -0.24
27107 H 77.07204987037083 88.42854826809383 67.0960214925899 H 0.0 **** 0.06
27108 H 77.80018199658507 87.02567608825234 67.91558893527576 H 0.0 **** 0.06
27109 H 78.57234308990226 88.62625400733646 68.03378863865575 H 0.0 **** 0.06
27110 H 78.5975840708209 87.7381133124565 66.49095082007769 H 0.0 **** 0.06
27111 C 74.32647592173961 102.2813045334812 123.25204690012714 C 0.0 **** -0.24
27112 H 74.8823985027693 103.21742582067333 123.29033749034465 H 0.0 **** 0.06
27113 H 73.25866931847106 102.494509718984 123.2063655890629 H 0.0 **** 0.06
27114 H 74.54242658664528 101.69381397620381 124.1447861447611 H 0.0 **** 0.06
27115 H 74.62319340415424 101.71829181344967 122.36671666898826 H 0.0 **** 0.06
27116 C 160.57348787603908 18.0682058739406 54.31519761051425 C 0.0 **** -0.24
27117 H 161.56244492998385 17.64821055253219 54.50107414221799 H 0.0 **** 0.06
27118 H 160.55087292142713 19.10534009277569 54.65038617290202 H 0.0 **** 0.06
27119 H 159.8266636487136 17.49247577449364 54.861883635927825 H 0.0 **** 0.06
27120 H 160.3549837921684 18.02612878301869 53.24817152481603 H 0.0 **** 0.06
27121 C 162.072275200056 148.32919757037735 49.95855142527252 C 0.0 **** -0.24
27122 H 162.04453840858787 147.27822056590185 49.669992583702935 H 0.0 **** 0.06
27123 H 161.14955326057822 148.81742469478488 49.64167646450842 H 0.0 **** 0.06
27124 H 162.92294820900648 148.81459723966756 49.48156113093039 H 0.0 **** 0.06
27125 H 162.1704727928859 148.40599379708826 51.042057676805285 H 0.0 **** 0.06
27126 C 119.41364669099539 117.53164710235575 9.488587083774213 C 0.0 **** -0.24
27127 H 119.29077670725803 117.63653562957586 8.410636459562468 H 0.0 **** 0.06
27128 H 118.78379814792498 118.26189308825059 9.997160394336397 H 0.0 **** 0.06
27129 H 120.4572351918464 117.70463728732682 9.754236595096899 H 0.0 **** 0.06
27130 H 119.12331101528315 116.52645584429305 9.792646105528583 H 0.0 **** 0.06
27131 C 109.82444721180372 100.315176102549 149.64354035883466 C 0.0 **** -0.24
27132 H 110.8213297406823 100.50814175928332 150.04101197903256 H 0.0 **** 0.06
27133 H 109.46526241331532 99.35559870315396 150.0154700309622 H 0.0 **** 0.06
27134 H 109.86583277980066 100.2915068274414 148.55506704463744 H 0.0 **** 0.06
27135 H 109.14668004875108 101.10658701791169 149.96484651200535 H 0.0 **** 0.06
27136 C 26.475189525917955 145.55888167748776 82.87235258111741 C 0.0 **** -0.24
27137 H 27.28979555289709 144.84087137585232 82.78137240234975 H 0.0 **** 0.06
27138 H 25.521334177724697 145.04074015957036 82.76935962050456 H 0.0 **** 0.06
27139 H 26.565820555084457 146.31260889182198 82.09060807712203 H 0.0 **** 0.06
27140 H 26.524123618642932 146.04103809338932 83.8489803741262 H 0.0 **** 0.06
27141 C 59.98316822417084 60.89288846673236 50.12188969084258 C 0.0 **** -0.24
27142 H 59.75566436438717 59.93610062110477 50.59101459346988 H 0.0 **** 0.06
27143 H 59.06015154554447 61.454602425651586 49.9770800429628 H 0.0 **** 0.06
27144 H 60.45891844098625 60.7197051840742 49.155829905572716 H 0.0 **** 0.06
27145 H 60.65852662882179 61.460035882989075 50.762984096593556 H 0.0 **** 0.06
27146 C 30.055728436829312 46.70115467805337 156.3150613028278 C 0.0 **** -0.24
27147 H 30.45245443032583 45.96958143882095 155.6103973433535 H 0.0 **** 0.06
27148 H 29.391142833476806 47.38710584221218 155.78995164116256 H 0.0 **** 0.06
27149 H 30.87917369233989 47.26037516064736 156.75898983461008 H 0.0 **** 0.06
27150 H 29.50115000839814 46.18537286542748 157.09911237239763 H 0.0 **** 0.06
27151 C 72.61801980934086 97.12456420358907 27.68365086944685 C 0.0 **** -0.24
27152 H 71.58020870140616 97.45700387709178 27.643040724375354 H 0.0 **** 0.06
27153 H 73.22470935700908 97.74795230224396 27.0263972867279 H 0.0 **** 0.06
27154 H 72.678922003232 96.08551984489142 27.359655601211912 H 0.0 **** 0.06
27155 H 72.9857662719575 97.20807007428482 28.706851985114 H 0.0 **** 0.06
27156 C 167.51990475805817 8.655404283353619 142.37809929067498 C 0.0 **** -0.24
27157 H 168.2366973224598 8.876669795774745 143.16911647606702 H 0.0 **** 0.06
27158 H 167.24437185649484 9.57888537641324 141.8681272369115 H 0.0 **** 0.06
27159 H 166.6288743139319 8.201395346166805 142.81213595645494 H 0.0 **** 0.06
27160 H 167.9684774767393 7.965148466952741 141.66359413926443 H 0.0 **** 0.06
27161 C 46.9965778427094 144.19015488350968 89.58258656005967 C 0.0 **** -0.24
27162 H 46.317745829351566 144.3206114134639 88.73911076939879 H 0.0 **** 0.06
27163 H 47.49775788334159 143.2256088842366 89.49889200071902 H 0.0 **** 0.06
27164 H 46.4302474662106 144.22676180115687 90.5130837483755 H 0.0 **** 0.06
27165 H 47.73941236963046 144.9879354174465 89.57736397645937 H 0.0 **** 0.06
27166 C 122.3634348647254 143.18245288500037 72.324896589531 C 0.0 **** -0.24
27167 H 122.43566153932329 142.48847341229066 71.48779326916198 H 0.0 **** 0.06
27168 H 123.18796510797728 143.89319485326362 72.27948856617577 H 0.0 **** 0.06
27169 H 122.41204524095778 142.6273799309759 73.26200343883625 H 0.0 **** 0.06
27170 H 121.4164762438364 143.7198697631251 72.2694829733915 H 0.0 **** 0.06
27171 C 136.63130424838423 118.72048702541571 58.406182587466645 C 0.0 **** -0.24
27172 H 135.75276431145545 118.22217614027872 58.815328051152676 H 0.0 **** 0.06
27173 H 137.53197537494611 118.25365543378396 58.804442505156345 H 0.0 **** 0.06
27174 H 136.61396661946503 119.77438974211603 58.68635520325432 H 0.0 **** 0.06
27175 H 136.6254108431067 118.63333756134995 57.31969815452396 H 0.0 **** 0.06
27176 C 59.08932987328478 42.85499574871096 172.221426306282 C 0.0 **** -0.24
27177 H 60.1494332520255 42.84356543187562 171.9699758471204 H 0.0 **** 0.06
27178 H 58.63289394326661 43.76450301094775 171.8277893753998 H 0.0 **** 0.06
27179 H 58.97210315852871 42.82904831246765 173.30532659925893 H 0.0 **** 0.06
27180 H 58.6023945553755 41.98436867737718 171.78190760514664 H 0.0 **** 0.06
27181 C 73.07471930523059 118.02536832186661 153.79675395114185 C 0.0 **** -0.24
27182 H 73.27244523397121 118.77574125192845 154.5615389396114 H 0.0 **** 0.06
27183 H 74.00663682748069 117.52770368997247 153.52692093874032 H 0.0 **** 0.06
27184 H 72.65094186014221 118.50723608635076 152.9151194767486 H 0.0 **** 0.06
27185 H 72.36922439107002 117.2900116402252 154.18293350529154 H 0.0 **** 0.06
27186 C 124.47596536617684 103.70277976580434 116.98889879206888 C 0.0 **** -0.24
27187 H 124.77719126536914 104.74830938492056 116.93036729904114 H 0.0 **** 0.06
27188 H 124.22414214036237 103.34154960536728 115.99202567740485 H 0.0 **** 0.06
27189 H 123.60536058671784 103.61186432025067 117.63900255742513 H 0.0 **** 0.06
27190 H 125.29530083267301 103.11050740843564 117.39472880148423 H 0.0 **** 0.06
27191 C 146.5605782826865 47.33646226615204 96.32833789497201 C 0.0 **** -0.24
27192 H 146.73408911265668 46.887910858271866 95.35054712431258 H 0.0 **** 0.06
27193 H 147.4636406638417 47.249064817396814 96.93339924642356 H 0.0 **** 0.06
27194 H 145.73955468567146 46.8205005282374 96.82539614359143 H 0.0 **** 0.06
27195 H 146.30637460849613 48.389473517068424 96.20541517400395 H 0.0 **** 0.06
27196 C 63.907988959871034 118.42180696266507 48.76630780466223 C 0.0 **** -0.24
27197 H 62.87565652934035 118.45236544614616 48.41566388460349 H 0.0 **** 0.06
27198 H 64.32885549321003 117.43609885174135 48.56991522762965 H 0.0 **** 0.06
27199 H 63.93276419470806 118.62174371481257 49.83775807491841 H 0.0 **** 0.06
27200 H 64.49198887042496 119.17834135092801 48.24201111954417 H 0.0 **** 0.06
27201 C 70.24659679215955 37.73211942878277 99.20768213203561 C 0.0 **** -0.24
27202 H 70.16174372507993 38.802832151636494 99.39258318420315 H 0.0 **** 0.06
27203 H 69.25216521623884 37.28546514699994 99.20421992478947 H 0.0 **** 0.06
27204 H 70.84749385308987 37.27452504095771 99.99288608837125 H 0.0 **** 0.06
27205 H 70.72296853072811 37.56804875189846 98.24149584352557 H 0.0 **** 0.06
27206 C 59.75641576894259 78.8131363520254 125.73897376711687 C 0.0 **** -0.24
27207 H 59.931939542556165 78.61376013299835 124.68138228647615 H 0.0 **** 0.06
27208 H 59.148458597834804 79.71298111752762 125.84267871662212 H 0.0 **** 0.06
27209 H 60.71067258766891 78.95906447157417 126.24436477518361 H 0.0 **** 0.06
27210 H 59.23380617955698 77.96814494600157 126.18562338889996 H 0.0 **** 0.06
27211 C 158.2717302727643 49.749591234384056 24.4093456930283 C 0.0 **** -0.24
27212 H 157.91235107392362 50.63564008155508 23.8863818258218 H 0.0 **** 0.06
27213 H 158.55326199540008 50.01893406650257 25.427611635127853 H 0.0 **** 0.06
27214 H 159.1382469284025 49.345596083765344 23.88692636185028 H 0.0 **** 0.06
27215 H 157.48151064085278 48.99945121660991 24.43747162029006 H 0.0 **** 0.06
27216 C 4.259755304293549 3.098758073889087 139.36812950270928 C 0.0 **** -0.24
27217 H 4.824781995113028 3.890904262317804 139.85942517782587 H 0.0 **** 0.06
27218 H 4.882401304635124 2.6276268783499006 138.6062321364035 H 0.0 **** 0.06
27219 H 3.372238607739604 3.5239442468363222 138.89915932768525 H 0.0 **** 0.06
27220 H 3.9609690331865863 2.3542693701222674 140.10542285833196 H 0.0 **** 0.06
27221 C 53.31872766204967 168.64286517290066 13.78277320111971 C 0.0 **** -0.24
27222 H 54.30411245912612 168.4630470154191 14.213785317549423 H 0.0 **** 0.06
27223 H 52.556186968476695 168.49263470990905 14.546786076597925 H 0.0 **** 0.06
27224 H 53.15079555882018 167.94862982852652 12.958793038489404 H 0.0 **** 0.06
27225 H 53.26660916253745 169.66617766060355 13.412231200876334 H 0.0 **** 0.06
27226 C 68.4582502399518 94.32440463548713 37.76894894858327 C 0.0 **** -0.24
27227 H 68.04540830302089 94.70215774694199 38.70454037495627 H 0.0 **** 0.06
27228 H 67.76252644888774 93.61121192938376 37.32717893139237 H 0.0 **** 0.06
27229 H 69.40972833091217 93.83065198358003 37.96551938408115 H 0.0 **** 0.06
27230 H 68.61481772994352 95.15384245410377 37.08019088026869 H 0.0 **** 0.06
27231 C 48.095626924092215 71.59976535163838 108.03842006946132 C 0.0 **** -0.24
27232 H 47.18633246872693 72.13748094163554 108.30675701945637 H 0.0 **** 0.06
27233 H 48.926261561303534 72.30376174829132 107.97123068639581 H 0.0 **** 0.06
27234 H 47.95696371095252 71.10773593142943 107.07689436250666 H 0.0 **** 0.06
27235 H 48.313038744864414 70.85211315296897 108.80193988327397 H 0.0 **** 0.06
27236 C 19.486873746140454 142.77589200824335 97.86482143042784 C 0.0 **** -0.24
27237 H 19.007822586267565 143.65595460180643 98.29223921561479 H 0.0 **** 0.06
27238 H 19.030043159190562 141.87644301887525 98.27673949894037 H 0.0 **** 0.06
27239 H 20.549981128817322 142.7873119460864 98.10701657410249 H 0.0 **** 0.06
27240 H 19.36228802430017 142.78390552302176 96.78186604158955 H 0.0 **** 0.06
27241 C 73.15517085252188 157.3753528802922 13.072805099234102 C 0.0 **** -0.24
27242 H 73.41563222654548 156.56981286838757 12.387321105575758 H 0.0 **** 0.06
27243 H 73.50380422956535 157.12751051806418 14.075789217023413 H 0.0 **** 0.06
27244 H 72.07283763579895 157.5053795702491 13.086591512031987 H 0.0 **** 0.06
27245 H 73.62753572158535 158.30086016484012 12.742298057285218 H 0.0 **** 0.06
27246 C 19.361560424466752 64.86457535276536 40.94262292070502 C 0.0 **** -0.24
27247 H 19.92593182781428 65.68416545229083 41.38582167160507 H 0.0 **** 0.06
27248 H 19.748508778493637 64.65411478296144 39.94578517368758 H 0.0 **** 0.06
27249 H 18.309670996018994 65.14407553405569 40.87340948456952 H 0.0 **** 0.06
27250 H 19.45974517676533 63.976409450280414 41.56692354753852 H 0.0 **** 0.06
27251 C 169.40023682142711 51.05427547890267 34.56331330858541 C 0.0 **** -0.24
27252 H 169.03684790733945 51.78995997633159 33.845469303382345 H 0.0 **** 0.06
27253 H 170.37661633263298 50.6872625265495 34.245496138442405 H 0.0 **** 0.06
27254 H 168.69855724365877 50.221818487955346 34.615994554877034 H 0.0 **** 0.06
27255 H 169.48752484295818 51.517844175026596 35.54529804072996 H 0.0 **** 0.06
27256 C 171.51363076389538 160.9648408427616 57.47286906737078 C 0.0 **** -0.24
27257 H 171.52785344256512 160.97934843444438 56.38311935921094 H 0.0 **** 0.06
27258 H 170.72703027028973 161.62758484633696 57.83463315471471 H 0.0 **** 0.06
27259 H 172.47757401842136 161.3046661760162 57.85222950725536 H 0.0 **** 0.06
27260 H 171.3238339670315 159.95007839623736 57.82077638521099 H 0.0 **** 0.06
27261 C 103.34981053733145 31.0911681927993 120.40872381335242 C 0.0 **** -0.24
27262 H 102.62238023721116 31.32451449673721 119.63043795306186 H 0.0 **** 0.06
27263 H 103.354482305223 31.88973601241301 121.15157362168628 H 0.0 **** 0.06
27264 H 104.34078180364554 31.001772558195427 119.96391087683224 H 0.0 **** 0.06
27265 H 103.0803111539816 30.150551943059327 120.88812063561403 H 0.0 **** 0.06
27266 C 37.697568227763156 161.31917446369508 67.84693081520365 C 0.0 **** -0.24
27267 H 38.206385034763684 160.55290631921326 67.26316567620495 H 0.0 **** 0.06
27268 H 37.7289344202531 161.05220053049985 68.90356522863829 H 0.0 **** 0.06
27269 H 36.66002201677492 161.39610136198326 67.52157823384218 H 0.0 **** 0.06
27270 H 38.19606279387105 162.2776607518382 67.69949468957556 H 0.0 **** 0.06
27271 C 143.81748129597764 64.38133605398924 31.464974503378414 C 0.0 **** -0.24
27272 H 143.14381603820627 64.84997806335252 32.18270773111777 H 0.0 **** 0.06
27273 H 143.24606346807275 64.03183510206122 30.604458980563834 H 0.0 **** 0.06
27274 H 144.3198301898609 63.53680652432283 31.93580953192557 H 0.0 **** 0.06
27275 H 144.5602100265366 65.10888138086494 31.136331780180456 H 0.0 **** 0.06
27276 C 48.561967054020556 50.4807628886701 144.35007147282852 C 0.0 **** -0.24
27277 H 48.14241947582934 51.41609828925179 144.72125972486938 H 0.0 **** 0.06
27278 H 47.754026271790394 49.79097788616886 144.1083226416962 H 0.0 **** 0.06
27279 H 49.20041142863619 50.0396759540715 145.11626747453147 H 0.0 **** 0.06
27280 H 49.15164660305294 50.67800331521609 143.45526847431887 H 0.0 **** 0.06
27281 C 5.671275291204935 15.380468004442072 13.405870558306304 C 0.0 **** -0.24
27282 H 6.220394714536006 14.575011640785632 13.894017158724552 H 0.0 **** 0.06
27283 H 5.319140140769271 15.040757922205813 12.431514822678139 H 0.0 **** 0.06
27284 H 6.326896457093589 16.241061917099714 13.276066216223171 H 0.0 **** 0.06
27285 H 4.8177334339769615 15.663382836751857 14.022496620179822 H 0.0 **** 0.06
27286 C 167.0779759790575 89.33617819824671 3.340583354794205 C 0.0 **** -0.24
27287 H 167.17927956372262 88.32920882218569 3.743428735334021 H 0.0 **** 0.06
27288 H 166.09512821408111 89.7322789041559 3.597310264171199 H 0.0 **** 0.06
27289 H 167.1866826713583 89.30707594866253 2.257017453625963 H 0.0 **** 0.06
27290 H 167.85098342093212 89.97660683077072 3.7659042454249914 H 0.0 **** 0.06
27291 C 17.984794287545014 115.91105866828758 26.05814206275506 C 0.0 **** -0.24
27292 H 17.14838519785738 116.51997025972955 25.716502391891716 H 0.0 **** 0.06
27293 H 17.605597924238708 115.03134383492377 26.57899726287615 H 0.0 **** 0.06
27294 H 18.605933318428185 116.49645214890094 26.736589541485742 H 0.0 **** 0.06
27295 H 18.580165749363687 115.5973673117509 25.19986834218072 H 0.0 **** 0.06
27296 C 33.37912692443726 46.43119556163947 22.117991796709504 C 0.0 **** -0.24
27297 H 33.48490652601231 45.97212306359825 21.134594457013378 H 0.0 **** 0.06
27298 H 32.85095616944999 47.37967104820183 22.020579842741768 H 0.0 **** 0.06
27299 H 34.366955797666904 46.60716327033549 22.544621245695225 H 0.0 **** 0.06
27300 H 32.81434699653808 45.76456296585985 22.769530586068868 H 0.0 **** 0.06
27301 C 81.12264860418266 77.079933104163 75.27805552210395 C 0.0 **** -0.24
27302 H 80.9793110059103 76.00481599502538 75.38564602664013 H 0.0 **** 0.06
27303 H 80.15562557232568 77.58219517906768 75.33377370675404 H 0.0 **** 0.06
27304 H 81.5866920737026 77.29029429771151 74.31433407972662 H 0.0 **** 0.06
27305 H 81.76677911583636 77.44241502575031 76.07957217378271 H 0.0 **** 0.06
27306 C 97.76830844643669 87.93064082023818 73.67047826789826 C 0.0 **** -0.24
27307 H 97.83870898796698 88.95153964334799 74.04439739167009 H 0.0 **** 0.06
27308 H 96.74393366125707 87.7276418781754 73.35854412882264 H 0.0 **** 0.06
27309 H 98.05293617954914 87.2341890861814 74.45865603831487 H 0.0 **** 0.06
27310 H 98.43859492395902 87.8093151978955 72.8182902746671 H 0.0 **** 0.06
27311 C 103.53481604881102 112.63059619284144 143.78513846455337 C 0.0 **** -0.24
27312 H 103.5243616749714 111.67400997347823 143.26285148237145 H 0.0 **** 0.06
27313 H 104.2395399393771 112.58299640978024 144.61524127752125 H 0.0 **** 0.06
27314 H 102.53726667165765 112.84624297690226 144.1664557329819 H 0.0 **** 0.06
27315 H 103.8389349342138 113.41758141364198 143.0950666212891 H 0.0 **** 0.06
27316 C 24.324912416777124 80.79598375004863 42.221594958542994 C 0.0 **** -0.24
27317 H 25.082248883707337 80.01560451615643 42.154031028754446 H 0.0 **** 0.06
27318 H 23.857133742591827 80.9328200782292 41.247109920165656 H 0.0 **** 0.06
27319 H 24.791490476071658 81.72875081084553 42.53579499726084 H 0.0 **** 0.06
27320 H 23.567688530151997 80.50444567828312 42.95065310004492 H 0.0 **** 0.06
27321 C 157.20629509144328 43.51222523315576 121.56051574817494 C 0.0 **** -0.24
27322 H 157.0273348058056 43.96249081411412 122.53663474349815 H 0.0 **** 0.06
27323 H 158.126184172221 42.928646193809016 121.59257444653619 H 0.0 **** 0.06
27324 H 157.29870564629329 44.29768065679082 120.80988516335933 H 0.0 **** 0.06
27325 H 156.37103761132556 42.86074259881218 121.30391002086157 H 0.0 **** 0.06
27326 C 100.75084145151945 85.91732132878235 16.90121364143394 C 0.0 **** -0.24
27327 H 99.77256056716274 85.49917732566604 17.13865898952065 H 0.0 **** 0.06
27328 H 101.49714171227629 85.50545297048825 17.581601472779766 H 0.0 **** 0.06
27329 H 100.71822831505273 87.00215439299228 17.011085585514707 H 0.0 **** 0.06
27330 H 101.01462204456345 85.66349916184055 15.87466686559327 H 0.0 **** 0.06
27331 C 119.7420252284009 16.732388173096467 42.805552290276864 C 0.0 **** -0.24
27332 H 119.78020731832481 15.75877780260754 43.2953759248782 H 0.0 **** 0.06
27333 H 119.95870916536904 17.514302661139737 43.53399721902234 H 0.0 **** 0.06
27334 H 118.74792869484611 16.890125261238666 42.387440734477366 H 0.0 **** 0.06
27335 H 120.4823763328414 16.76421957205656 42.00586284798078 H 0.0 **** 0.06
27336 C 53.596671365375045 153.57954202932098 163.25118017456964 C 0.0 **** -0.24
27337 H 54.58477703119655 153.88236716526748 163.5976297591989 H 0.0 **** 0.06
27338 H 53.15472122206188 154.38603621417104 162.66649105032693 H 0.0 **** 0.06
27339 H 52.961580665072574 153.36273716692486 164.11021896551438 H 0.0 **** 0.06
27340 H 53.68675121187822 152.68660990495167 162.63196692462958 H 0.0 **** 0.06
27341 C 37.681329672494826 113.94271266045308 104.38928456443838 C 0.0 **** -0.24
27342 H 37.68154065844254 114.07973374913283 105.47076751368795 H 0.0 **** 0.06
27343 H 38.5061107206011 114.5057591562074 103.9518053452025 H 0.0 **** 0.06
27344 H 36.73778788582723 114.30035977362729 103.97768936276154 H 0.0 **** 0.06
27345 H 37.79980652267841 112.88439133255099 104.15766768807961 H 0.0 **** 0.06
27346 C 27.79367262052034 110.41214684401388 134.04389955845875 C 0.0 **** -0.24
27347 H 28.40356570153409 109.50856176787985 134.08206596944922 H 0.0 **** 0.06
27348 H 26.797349978375053 110.1945785260084 134.43006977125336 H 0.0 **** 0.06
27349 H 27.71639264744323 110.75393613547021 133.01171397740913 H 0.0 **** 0.06
27350 H 28.258403558623087 111.18864407906901 134.65043014121662 H 0.0 **** 0.06
27351 C 146.2305446960567 172.6865477452299 97.19199102972496 C 0.0 **** -0.24
27352 H 145.9987495200822 172.9294600966654 98.228488372643 H 0.0 **** 0.06
27353 H 145.62716105615075 171.83580522405276 96.87447009154363 H 0.0 **** 0.06
27354 H 147.28828066677877 172.43542973360078 97.1059818562884 H 0.0 **** 0.06
27355 H 146.00865454420023 173.54603431878957 96.55953884094828 H 0.0 **** 0.06
27356 C 3.5554863739615143 82.90685856063527 154.37801904832637 C 0.0 **** -0.24
27357 H 2.6169974698364626 83.09167075986873 153.85482670503157 H 0.0 **** 0.06
27358 H 3.6950299414672827 83.66326160634725 155.15081412501266 H 0.0 **** 0.06
27359 H 4.381981652416073 82.95338024569871 153.6695591365451 H 0.0 **** 0.06
27360 H 3.525980159372807 81.91809990815649 154.837235698229 H 0.0 **** 0.06
27361 C 118.25369589109985 25.891673062792336 86.90615480200115 C 0.0 **** -0.24
27362 H 119.33326142115837 25.982957380534742 86.78378387700324 H 0.0 **** 0.06
27363 H 117.86362005550765 26.796909248024576 87.37068085802363 H 0.0 **** 0.06
27364 H 118.03221745942366 25.032605968529964 87.53953400919734 H 0.0 **** 0.06
27365 H 117.7886461206351 25.7537431779771 85.93056768957167 H 0.0 **** 0.06
27366 C 118.81906806282345 77.3159792068474 147.1183455026128 C 0.0 **** -0.24
27367 H 117.83162432107568 77.45882722086252 146.67977569268197 H 0.0 **** 0.06
27368 H 118.89233297397212 76.30978992836147 147.53120332003678 H 0.0 **** 0.06
27369 H 118.97222217994565 78.04720712550336 147.91290183831728 H 0.0 **** 0.06
27370 H 119.58009164524307 77.44950533583388 146.34943714149634 H 0.0 **** 0.06
27371 C 145.03580404169534 46.181613979995845 137.81781308107858 C 0.0 **** -0.24
27372 H 145.84622934133353 45.76513283869646 138.4163617331888 H 0.0 **** 0.06
27373 H 145.45372227776855 46.72752748341183 136.97091637528473 H 0.0 **** 0.06
27374 H 144.44385236333238 46.86167352426021 138.4311893441727 H 0.0 **** 0.06
27375 H 144.40075133169057 45.374578773396564 137.45319903833544 H 0.0 **** 0.06
27376 C 89.57134169880648 131.0910874619912 41.50504252699935 C 0.0 **** -0.24
27377 H 88.77277656719694 131.730286355514 41.88313341782484 H 0.0 **** 0.06
27378 H 90.44452297059867 131.70080326007547 41.27273174596826 H 0.0 **** 0.06
27379 H 89.23222050216621 130.5820814510417 40.603800700275144 H 0.0 **** 0.06
27380 H 89.8336888370198 130.35257562670807 42.262826429760025 H 0.0 **** 0.06
27381 C 112.33849174718799 157.7142536926927 71.32288324098444 C 0.0 **** -0.24
27382 H 111.34481943140216 157.48310258303346 71.70676692205099 H 0.0 **** 0.06
27383 H 112.27645883947807 157.92307399036886 70.25493886853062 H 0.0 **** 0.06
27384 H 112.99850565111663 156.86263115220453 71.48949625117064 H 0.0 **** 0.06
27385 H 112.73407990397251 158.58666835286704 71.8429042536532 H 0.0 **** 0.06
27386 C 128.12996258692053 6.038581296036462 125.30151506582487 C 0.0 **** -0.24
27387 H 127.23807167410018 6.637794715782398 125.48596309282544 H 0.0 **** 0.06
27388 H 128.22390266053245 5.277781695028395 126.0757794828196 H 0.0 **** 0.06
27389 H 129.0086135130432 6.683419855660333 125.31544220724433 H 0.0 **** 0.06
27390 H 128.04753183107388 5.557543585980476 124.32661707556261 H 0.0 **** 0.06
27391 C 163.10343354843724 99.18101410015834 69.45018083847484 C 0.0 **** -0.24
27392 H 164.02243942536268 98.60605542540048 69.55987988057453 H 0.0 **** 0.06
27393 H 162.86318241277456 99.66627756395658 70.3968307116064 H 0.0 **** 0.06
27394 H 162.2890501068676 98.51333104071102 69.16667746397998 H 0.0 **** 0.06
27395 H 163.23906224874406 99.93839237056511 68.67733529773838 H 0.0 **** 0.06
27396 C 92.28234067255636 55.56251488756487 72.3569261432122 C 0.0 **** -0.24
27397 H 92.95451058394568 55.649683496132326 71.50277834955511 H 0.0 **** 0.06
27398 H 92.18659063689972 54.513453275609095 72.63887096125313 H 0.0 **** 0.06
27399 H 91.30241882285543 55.95761502504726 72.08893316424235 H 0.0 **** 0.06
27400 H 92.68557856061301 56.12962919455231 73.19577043581171 H 0.0 **** 0.06
27401 C 143.52032855563803 169.56810571215334 114.54659026111204 C 0.0 **** -0.24
27402 H 142.75982390402055 170.28287106124498 114.23091577987998 H 0.0 **** 0.06
27403 H 143.16890388746285 168.55472637183834 114.35116965097347 H 0.0 **** 0.06
27404 H 143.70998455060206 169.68844799217896 115.61345273558814 H 0.0 **** 0.06
27405 H 144.44040199298 169.74864818346404 113.99088938269992 H 0.0 **** 0.06
27406 C 71.15526814850057 111.08163717971058 31.118878796313993 C 0.0 **** -0.24
27407 H 71.95894281524761 110.74163307301038 30.466232334545424 H 0.0 **** 0.06
27408 H 71.49166123106295 111.05079427460032 32.15573781496255 H 0.0 **** 0.06
27409 H 70.28934489312982 110.42974218574798 30.999116337828752 H 0.0 **** 0.06
27410 H 70.8802321023262 112.10285797837375 30.856129059978173 H 0.0 **** 0.06
27411 C 106.9210631010697 47.113349969392274 101.81678337986915 C 0.0 **** -0.24
27412 H 106.07502687029876 47.003144253886816 101.13745752438734 H 0.0 **** 0.06
27413 H 106.56601671577238 47.47777513789356 102.78114149112929 H 0.0 **** 0.06
27414 H 107.63163563030673 47.82534852736097 101.3970740559169 H 0.0 **** 0.06
27415 H 107.408246998127 46.14790075365832 101.94840332487712 H 0.0 **** 0.06
27416 C 18.940079468123344 3.521280710050405 133.633415007626 C 0.0 **** -0.24
27417 H 18.738985530883696 4.028087357076146 134.57821259818053 H 0.0 **** 0.06
27418 H 19.95771558471239 3.1296963658861046 133.64199670748172 H 0.0 **** 0.06
27419 H 18.82983936731455 4.229013615132857 132.81147556046454 H 0.0 **** 0.06
27420 H 18.234956939383608 2.70110973481826 133.5041790476592 H 0.0 **** 0.06
27421 C 112.93977541280611 110.37612148929679 142.18915430133444 C 0.0 **** -0.24
27422 H 113.25323368126604 110.43152040036978 141.1467546397033 H 0.0 **** 0.06
27423 H 112.9905184769514 109.34239363281077 142.5304548033307 H 0.0 **** 0.06
27424 H 111.91614295028674 110.73933302579127 142.2804787011273 H 0.0 **** 0.06
27425 H 113.59969588949829 110.99336713852469 142.79940996925052 H 0.0 **** 0.06
27426 C 60.81532058798649 6.413429739926414 152.94611685024307 C 0.0 **** -0.24
27427 H 59.97383835061953 6.853945104835169 153.48074666510365 H 0.0 **** 0.06
27428 H 61.06074890259481 5.447531197470951 153.38738788697424 H 0.0 **** 0.06
27429 H 61.67778164170056 7.076305596147712 153.0163216722321 H 0.0 **** 0.06
27430 H 60.5469501338946 6.27680507610998 151.8979154276662 H 0.0 **** 0.06
27431 C 80.5308451682589 68.46577926208928 28.810220415954518 C 0.0 **** -0.24
27432 H 80.87775144640494 67.43308367265928 28.810270510755288 H 0.0 **** 0.06
27433 H 79.4925984243128 68.50055154627023 29.138311464038395 H 0.0 **** 0.06
27434 H 80.60773775641576 68.87420557436342 27.801983491986732 H 0.0 **** 0.06
27435 H 81.14678844672744 69.05527593178925 29.488653694127436 H 0.0 **** 0.06
27436 C 2.1296650577151013 8.328177439030071 137.1904007612502 C 0.0 **** -0.24
27437 H 1.894123254289262 7.3592893734683 137.6310028121984 H 0.0 **** 0.06
27438 H 1.6231228276918586 8.423645136778475 136.23081281406854 H 0.0 **** 0.06
27439 H 3.2064347115360476 8.40747925998619 137.04329026478004 H 0.0 **** 0.06
27440 H 1.7951369518349622 9.121305205567069 137.85914172707578 H 0.0 **** 0.06
27441 C 141.47872463920623 79.05829412287756 62.38515240728995 C 0.0 **** -0.24
27442 H 142.32410671258515 79.5327713847297 61.886384248673835 H 0.0 **** 0.06
27443 H 141.4804160190476 77.99031480512241 62.16514439429119 H 0.0 **** 0.06
27444 H 140.549635277139 79.5017574332166 62.025997209873 H 0.0 **** 0.06
27445 H 141.56104412368052 79.20838546857209 63.46170351151801 H 0.0 **** 0.06
27446 C 171.54253904887685 114.3281419884338 9.149888834029184 C 0.0 **** -0.24
27447 H 170.9625017526001 114.91227852569168 8.435432099217167 H 0.0 **** 0.06
27448 H 171.68510018235582 113.31870896771656 8.76307685481612 H 0.0 **** 0.06
27449 H 171.00996847891759 114.28313589106196 10.099665236077726 H 0.0 **** 0.06
27450 H 172.51382053419783 114.79983815325687 9.299789455912219 H 0.0 **** 0.06
27451 C 53.97595020276884 92.4165597034029 41.79670904166129 C 0.0 **** -0.24
27452 H 53.52216445405449 93.3786978526588 42.03368552209207 H 0.0 **** 0.06
27453 H 53.206260915330716 91.64480194789792 41.78653291506818 H 0.0 **** 0.06
27454 H 54.72641494761103 92.17365942037034 42.54892197828691 H 0.0 **** 0.06
27455 H 54.449144074542744 92.47137222214042 40.81576951139492 H 0.0 **** 0.06
27456 C 23.24257536434783 16.464460663803457 68.499718966631 C 0.0 **** -0.24
27457 H 23.436754862181573 16.34109896208337 67.434571849889 H 0.0 **** 0.06
27458 H 22.267731225292238 16.03959048328999 68.74304688018276 H 0.0 **** 0.06
27459 H 23.24945052410652 17.5248501933534 68.7505534597733 H 0.0 **** 0.06
27460 H 24.015288625767653 15.950833349255653 69.07234135681801 H 0.0 **** 0.06
27461 C 123.61005047797681 123.65484954283366 77.30806114729054 C 0.0 **** -0.24
27462 H 124.18414413996433 124.50998884190844 77.66348540856927 H 0.0 **** 0.06
27463 H 124.23913480164552 122.76486306900881 77.32063778252622 H 0.0 **** 0.06
27464 H 123.26901681276141 123.84423232951931 76.28982325329129 H 0.0 **** 0.06
27465 H 122.74772930557313 123.50133111866265 77.95690741251096 H 0.0 **** 0.06
27466 C 148.76193672661014 22.548524809244093 100.33033592116567 C 0.0 **** -0.24
27467 H 149.71770050495354 22.616118508542115 99.8114083197419 H 0.0 **** 0.06
27468 H 148.78225976646877 23.187056338913315 101.21432782490584 H 0.0 **** 0.06
27469 H 148.584427516706 21.515870545213232 100.63210878293714 H 0.0 **** 0.06
27470 H 147.96256028029228 22.875048345519595 99.66410030135143 H 0.0 **** 0.06
27471 C 78.57307411547228 103.292865250029 102.179773386694 C 0.0 **** -0.24
27472 H 78.85056005606145 104.33786388813789 102.04512362778985 H 0.0 **** 0.06
27473 H 79.11936185084525 102.67679895501328 101.46473894893651 H 0.0 **** 0.06
27474 H 77.50117996972216 103.17738836530998 102.01582447919108 H 0.0 **** 0.06
27475 H 78.8204117289597 102.97826242683487 103.19367247177112 H 0.0 **** 0.06
27476 C 48.926838627940995 133.5423632864859 106.35776282540363 C 0.0 **** -0.24
27477 H 49.57294358719403 134.4190377959914 106.3949696963704 H 0.0 **** 0.06
27478 H 49.23002379282309 132.83477827055754 107.12964325285319 H 0.0 **** 0.06
27479 H 49.00984737020511 133.0713297999687 105.37917039700164 H 0.0 **** 0.06
27480 H 47.89303417322748 133.8459260508444 106.5290323267723 H 0.0 **** 0.06
27481 C 115.04677932861509 158.8844230362549 114.27631230791695 C 0.0 **** -0.24
27482 H 115.86980282637134 158.50289168006879 114.88160014445106 H 0.0 **** 0.06
27483 H 114.35043125870439 159.43131561914097 114.91387416347641 H 0.0 **** 0.06
27484 H 114.52833875865443 158.05153371204997 113.80238625269783 H 0.0 **** 0.06
27485 H 115.43909848646172 159.55274836998936 113.50963759268507 H 0.0 **** 0.06
27486 C 125.11164537149074 164.06493549853738 146.681865434372 C 0.0 **** -0.24
27487 H 124.87548406527878 164.70135929259777 145.82933815441555 H 0.0 **** 0.06
27488 H 126.00133688871253 163.4746202879432 146.45900183097552 H 0.0 **** 0.06
27489 H 124.27307856168486 163.396710835332 146.88005149583344 H 0.0 **** 0.06
27490 H 125.29705707247268 164.68505080064378 147.55814487694985 H 0.0 **** 0.06
27491 C 5.80414673433512 127.32130452207116 15.720027442902335 C 0.0 **** -0.24
27492 H 6.4998465008578705 126.97920478713877 16.4859417845515 H 0.0 **** 0.06
27493 H 6.249189349497215 127.1757381948756 14.73463880896702 H 0.0 **** 0.06
27494 H 5.590635788928722 128.3799459697969 15.869364513144177 H 0.0 **** 0.06
27495 H 4.878234734896125 126.75075214042664 15.788409588383672 H 0.0 **** 0.06
27496 C 13.22262575759089 18.416454655662392 156.91075660597184 C 0.0 **** -0.24
27497 H 12.43677512208518 18.939221338328025 157.45736066892425 H 0.0 **** 0.06
27498 H 13.993400024632479 18.08721075477615 157.60917462470917 H 0.0 **** 0.06
27499 H 13.661741484718277 19.089358188007736 156.17506280766952 H 0.0 **** 0.06
27500 H 12.796612738821239 17.550461573547125 156.40405839540847 H 0.0 **** 0.06
27501 C 81.70565365759327 88.11038038138275 126.20603847110675 C 0.0 **** -0.24
27502 H 82.37027492408255 88.36283623111416 125.37922602065203 H 0.0 **** 0.06
27503 H 82.0891602711374 87.22961923937129 126.72312717882164 H 0.0 **** 0.06
27504 H 80.7087153496881 87.90073349091449 125.81909227128165 H 0.0 **** 0.06
27505 H 81.65713893042766 88.94760946312687 126.90155837856275 H 0.0 **** 0.06
27506 C 60.79782471112759 127.85889409805787 97.0263958514073 C 0.0 **** -0.24
27507 H 60.663286303424286 127.56926138907494 98.06817820549716 H 0.0 **** 0.06
27508 H 60.10337219767962 127.2989771621929 96.40013080123117 H 0.0 **** 0.06
27509 H 61.821030926625326 127.64264015372231 96.71897682057767 H 0.0 **** 0.06
27510 H 60.60504925287876 128.92665156034246 96.91862836452077 H 0.0 **** 0.06
27511 C 49.58532936017275 89.45391282032226 71.92309822886392 C 0.0 **** -0.24
27512 H 50.17170897962848 88.60869768242472 72.28252899899378 H 0.0 **** 0.06
27513 H 48.533819171853025 89.16933543148185 71.86976664595936 H 0.0 **** 0.06
27514 H 49.934346957565396 89.7424111780789 70.93121687465508 H 0.0 **** 0.06
27515 H 49.70112455397276 90.29300154365045 72.60786295080528 H 0.0 **** 0.06
27516 C 91.24214538704621 112.24616692951315 52.493520296917126 C 0.0 **** -0.24
27517 H 90.84032776920863 111.23316978786389 52.54261848320256 H 0.0 **** 0.06
27518 H 92.19165404440275 112.23487153850442 51.958043016429 H 0.0 **** 0.06
27519 H 91.39910029705197 112.6225496105165 53.50467381454794 H 0.0 **** 0.06
27520 H 90.53645375342892 112.89085803645506 51.970341686228096 H 0.0 **** 0.06
27521 C 32.730393849143795 107.50977341449726 66.16406841800168 C 0.0 **** -0.24
27522 H 32.22975605796641 106.55892031868459 66.34650847834476 H 0.0 **** 0.06
27523 H 32.79102323620293 107.68873422767965 65.09075006868972 H 0.0 **** 0.06
27524 H 33.73619277413418 107.47698959676615 66.58498643662224 H 0.0 **** 0.06
27525 H 32.16538507719922 108.3130433147991 66.63558162417165 H 0.0 **** 0.06
27526 C 57.32300345595385 52.745480076937326 87.89933186819273 C 0.0 **** -0.24
27527 H 56.93338514028707 53.76378415826282 87.90874311197506 H 0.0 **** 0.06
27528 H 56.900604545601965 52.18763240744211 88.7348384878931 H 0.0 **** 0.06
27529 H 58.40858436107787 52.7708058177232 87.99090628515793 H 0.0 **** 0.06
27530 H 57.04777545253788 52.26149493751686 86.96280899764615 H 0.0 **** 0.06
27531 C 33.726088694708565 167.45515338201662 50.719632399157206 C 0.0 **** -0.24
27532 H 33.38873336702778 167.01192511103721 51.65589477298515 H 0.0 **** 0.06
27533 H 34.314864613186174 166.7256619747408 50.163765165736805 H 0.0 **** 0.06
27534 H 34.33774929469132 168.33134022860514 50.93196250106753 H 0.0 **** 0.06
27535 H 32.86114919021058 167.7509409581815 50.12591146410536 H 0.0 **** 0.06
27536 C 133.3701993286106 58.74212817858216 139.96807758775776 C 0.0 **** -0.24
27537 H 133.4758451884017 57.89551164562991 139.28941817793563 H 0.0 **** 0.06
27538 H 132.44545078895604 58.63839321381013 140.53588511391206 H 0.0 **** 0.06
27539 H 133.34184201466581 59.66683015984785 139.392550641505 H 0.0 **** 0.06
27540 H 134.21767106707514 58.765611130866546 140.65331360127453 H 0.0 **** 0.06
27541 C 8.168857227423814 114.31482461052877 87.90919259391491 C 0.0 **** -0.24
27542 H 7.56816356469642 114.55110801823815 87.030409069523 H 0.0 **** 0.06
27543 H 8.37878079793245 113.24586684794423 87.92900557560222 H 0.0 **** 0.06
27544 H 7.620603720259794 114.59504609489846 88.80891489033071 H 0.0 **** 0.06
27545 H 9.106111694104754 114.86893844778723 87.86641312270662 H 0.0 **** 0.06
27546 C 103.81443592647238 134.67653395503118 90.37807422998725 C 0.0 **** -0.24
27547 H 104.26573738556343 133.73349027034197 90.07115443310664 H 0.0 **** 0.06
27548 H 103.85010702480056 135.383484988207 89.54846587180629 H 0.0 **** 0.06
27549 H 104.36549302234675 135.08320268839873 91.2265321407628 H 0.0 **** 0.06
27550 H 102.77785479968486 134.5067519866107 90.66666528000559 H 0.0 **** 0.06
27551 C 18.49341662366146 67.0967244530121 111.78222757298977 C 0.0 **** -0.24
27552 H 18.51052005481938 66.53173508656576 112.71414692036882 H 0.0 **** 0.06
27553 H 18.62373977668298 68.15720355701478 111.99878966999427 H 0.0 **** 0.06
27554 H 17.53763542917136 66.94221100443157 111.28185663257872 H 0.0 **** 0.06
27555 H 19.302701540726304 66.75525661259628 111.13632909842866 H 0.0 **** 0.06
27556 C 2.544613610659894 105.87156160522045 86.47662017351985 C 0.0 **** -0.24
27557 H 1.5276430451322085 106.01459281141189 86.84237437786987 H 0.0 **** 0.06
27558 H 2.8856352096322553 106.78414301185293 85.98781998101725 H 0.0 **** 0.06
27559 H 2.559720046304534 105.04822706236433 85.76187599878762 H 0.0 **** 0.06
27560 H 3.2016127739318847 105.63798359537452 87.31367606373675 H 0.0 **** 0.06
27561 C 139.20337542340633 136.00758030579578 125.07196459428224 C 0.0 **** -0.24
27562 H 139.54248442810692 136.64057766163552 125.89318848028512 H 0.0 **** 0.06
27563 H 138.29882158892104 135.47933896940532 125.37150858904857 H 0.0 **** 0.06
27564 H 139.98212033604085 135.28568799926535 124.82464281673577 H 0.0 **** 0.06
27565 H 138.9919535014243 136.6275290781028 124.20087707399222 H 0.0 **** 0.06
27566 C 67.15137043500047 108.50816161797323 57.847375637585515 C 0.0 **** -0.24
27567 H 68.01222383605648 108.19430830314167 57.25574505564734 H 0.0 **** 0.06
27568 H 67.03874978384721 109.59075723488763 57.776576279755886 H 0.0 **** 0.06
27569 H 67.3043389869015 108.2252539857632 58.8890392540502 H 0.0 **** 0.06
27570 H 66.25271102853553 108.02312923741766 57.46616828229514 H 0.0 **** 0.06
27571 C 154.89883538344 106.33940984620767 18.92270369028779 C 0.0 **** -0.24
27572 H 153.98772192164915 106.68728539222997 19.408284802574087 H 0.0 **** 0.06
27573 H 154.8025931068554 105.27881457557629 18.68726511711941 H 0.0 **** 0.06
27574 H 155.746387280339 106.48784007899093 19.592043246224534 H 0.0 **** 0.06
27575 H 155.0585301303685 106.90329202498037 18.004128360025362 H 0.0 **** 0.06
27576 C 45.93607819713536 170.82717479938313 27.959341129520055 C 0.0 **** -0.24
27577 H 46.355249278054046 169.85849393153023 28.231585813433696 H 0.0 **** 0.06
27578 H 46.0088452858007 170.96317431816055 26.879842498298615 H 0.0 **** 0.06
27579 H 46.491511601791174 171.61778382678273 28.463751955057774 H 0.0 **** 0.06
27580 H 44.88999109861777 170.86742437712934 28.261170400079266 H 0.0 **** 0.06
27581 C 121.07967246665595 159.40565087433902 64.24630815622892 C 0.0 **** -0.24
27582 H 121.87847639423347 158.72523847634676 63.95323750524068 H 0.0 **** 0.06
27583 H 120.1172167912597 158.9772684516592 63.96762241749103 H 0.0 **** 0.06
27584 H 121.21296250342755 160.36117880046527 63.73978045407 H 0.0 **** 0.06
27585 H 121.1110992184781 159.55823403446516 65.32522331962721 H 0.0 **** 0.06
27586 C 141.7876599305013 132.24305160376508 71.25961746302511 C 0.0 **** -0.24
27587 H 141.4827335504139 132.34416872164147 72.30064694577175 H 0.0 **** 0.06
27588 H 140.90805652208195 132.29267373794772 70.61677400673338 H 0.0 **** 0.06
27589 H 142.28720025314334 131.28420898900555 71.11828270673391 H 0.0 **** 0.06
27590 H 142.47236489870778 133.05146040210735 71.00141496156516 H 0.0 **** 0.06
27591 C 148.55583795275837 31.886609330905458 1.9098390851383726 C 0.0 **** -0.24
27592 H 147.94463679977412 32.28609396933729 1.1014584085668275 H 0.0 **** 0.06
27593 H 147.93440798363198 31.28190670673996 2.570533206447408 H 0.0 **** 0.06
27594 H 148.99389524548357 32.70975556980568 2.4739572033203387 H 0.0 **** 0.06
27595 H 149.3514715159261 31.268606212048894 1.492474025940112 H 0.0 **** 0.06
27596 C 121.32663960763705 58.21601128396462 22.238090993994348 C 0.0 **** -0.24
27597 H 121.44414956590543 57.21499316341307 21.82095268854853 H 0.0 **** 0.06
27598 H 121.34922633192244 58.949777422696556 21.431989079908973 H 0.0 **** 0.06
27599 H 122.14132784112064 58.41633545124233 22.934123680720994 H 0.0 **** 0.06
27600 H 120.3745908772726 58.280383616991884 22.763571310241716 H 0.0 **** 0.06
27601 C 16.64177914833529 74.83091637617184 28.694473384126496 C 0.0 **** -0.24
27602 H 16.172421788102703 75.06738100912688 29.64957250977642 H 0.0 **** 0.06
27603 H 15.973255567052334 74.19846828146808 28.10939916218541 H 0.0 **** 0.06
27604 H 17.57948297231888 74.30270619846195 28.87243625580993 H 0.0 **** 0.06
27605 H 16.84156091332577 75.75267527776305 28.149299172120777 H 0.0 **** 0.06
27606 C 130.58671100626657 161.750212311861 172.02937976596104 C 0.0 **** -0.24
27607 H 130.6927131254405 161.25403259130098 172.99455511042515 H 0.0 **** 0.06
27608 H 129.91626109931684 161.16944651871893 171.39483170769108 H 0.0 **** 0.06
27609 H 131.56345014600197 161.8290399665824 171.55227806612868 H 0.0 **** 0.06
27610 H 130.1732968175275 162.7474157316061 172.1786654636068 H 0.0 **** 0.06
27611 C 113.6251848097167 147.5077265510522 46.8660467640904 C 0.0 **** -0.24
27612 H 114.54895363546456 148.08255753256395 46.79202165619925 H 0.0 **** 0.06
27613 H 112.84889387446685 148.12621255983925 47.31686117571314 H 0.0 **** 0.06
27614 H 113.79438775274974 146.62697633086322 47.48501169121292 H 0.0 **** 0.06
27615 H 113.31014162606465 147.19666546548268 45.87006635499344 H 0.0 **** 0.06
27616 C 167.8946175304988 114.55515627661686 117.4290728361218 C 0.0 **** -0.24
27617 H 167.08165012042764 114.05920379139758 116.89768471067424 H 0.0 **** 0.06
27618 H 167.89174128934633 115.61818986600218 117.18735914086085 H 0.0 **** 0.06
27619 H 168.84500316300648 114.11519343286608 117.12723343311853 H 0.0 **** 0.06
27620 H 167.75851341023935 114.4254669934648 118.50261768196287 H 0.0 **** 0.06
27621 C 47.228286246147064 106.49502435661066 40.59141006144006 C 0.0 **** -0.24
27622 H 46.84976698674015 107.50033841932341 40.40538317417315 H 0.0 **** 0.06
27623 H 46.720567456234974 106.07018340336543 41.457842981049055 H 0.0 **** 0.06
27624 H 48.29966058098708 106.53995176355258 40.78326080474562 H 0.0 **** 0.06
27625 H 47.04134066512441 105.86926477524634 39.717889299318585 H 0.0 **** 0.06
27626 C 130.71798239009993 94.32414193600567 20.22565295381056 C 0.0 **** -0.24
27627 H 131.7575966125543 94.13563772757186 20.4899001157329 H 0.0 **** 0.06
27628 H 130.44700356736635 93.71885937475196 19.360357226488986 H 0.0 **** 0.06
27629 H 130.58950556412464 95.37907304691862 19.98501168790517 H 0.0 **** 0.06
27630 H 130.0758576175914 94.06270915789628 21.067568568895858 H 0.0 **** 0.06
27631 C 76.18510892633768 83.9005483384342 19.36549044986259 C 0.0 **** -0.24
27632 H 75.39764314499533 83.16291237549683 19.209317378276324 H 0.0 **** 0.06
27633 H 76.90842874700029 83.8367225472358 18.551685847593376 H 0.0 **** 0.06
27634 H 76.68589260762984 83.7019502308222 20.313926387295226 H 0.0 **** 0.06
27635 H 75.74829120872673 84.89921520796393 19.386867172271337 H 0.0 **** 0.06
27636 C 107.03008880081387 100.28381608590632 99.87997646244867 C 0.0 **** -0.24
27637 H 107.30011681019369 100.00592125213194 98.86168500546722 H 0.0 **** 0.06
27638 H 106.83393901463245 101.35545319571253 99.925323729187 H 0.0 **** 0.06
27639 H 107.84972370359324 100.03518114649944 100.55394342831516 H 0.0 **** 0.06
27640 H 106.13567791532992 99.73761025858715 100.17994738187875 H 0.0 **** 0.06
27641 C 134.96448390796644 102.25236695265056 120.84968016749764 C 0.0 **** -0.24
27642 H 134.06855800438922 101.94324221413714 120.31066822408025 H 0.0 **** 0.06
27643 H 135.60116679209688 101.384133483629 121.02213235384357 H 0.0 **** 0.06
27644 H 134.67880795175643 102.68997405021162 121.80663548661195 H 0.0 **** 0.06
27645 H 135.50710405290505 102.99134460806843 120.25962711526404 H 0.0 **** 0.06
27646 C 91.43670980551322 4.204888700412511 34.57581840276973 C 0.0 **** -0.24
27647 H 91.73779115340577 4.618219040436344 33.612551943005485 H 0.0 **** 0.06
27648 H 91.69605152593635 3.1468243413652317 34.61398739972431 H 0.0 **** 0.06
27649 H 90.35925259036694 4.319143944236913 34.69869191791696 H 0.0 **** 0.06
27650 H 91.95233905273483 4.735620477418195 35.37605176891786 H 0.0 **** 0.06
27651 C 130.4686163662962 12.888451442803898 108.06851520100147 C 0.0 **** -0.24
27652 H 131.35833733975622 12.291713757467619 108.26660830244083 H 0.0 **** 0.06
27653 H 129.9544945230613 13.096597557459319 109.00645074772018 H 0.0 **** 0.06
27654 H 129.80225574984607 12.337758759473282 107.4037413193756 H 0.0 **** 0.06
27655 H 130.75775076285512 13.826522061758567 107.59505138024758 H 0.0 **** 0.06
27656 C 80.85036319695311 165.5593837117847 161.7563291144805 C 0.0 **** -0.24
27657 H 80.91800185217325 164.6986754002528 162.4215632048474 H 0.0 **** 0.06
27658 H 79.8240624664723 165.92674278957097 161.7414524956282 H 0.0 **** 0.06
27659 H 81.14569413159641 165.2643320855705 160.74950273502154 H 0.0 **** 0.06
27660 H 81.51360967838637 166.347134933374 162.11355355584016 H 0.0 **** 0.06
27661 C 14.053974744216333 138.66304838831817 35.24011058306303 C 0.0 **** -0.24
27662 H 15.048215892710516 138.33514179260263 34.938261346565355 H 0.0 **** 0.06
27663 H 13.339609402223658 137.85646275928593 35.072286290866884 H 0.0 **** 0.06
27664 H 13.763689641383309 139.53426222069348 34.65212144394263 H 0.0 **** 0.06
27665 H 14.063759329647354 138.9251016762873 36.298103268082116 H 0.0 **** 0.06
27666 C 73.46417123190108 15.39221792012578 7.942626220332443 C 0.0 **** -0.24
27667 H 72.83792565880603 14.55572866579579 7.631789597376439 H 0.0 **** 0.06
27668 H 73.83452872593651 15.21257398125411 8.952058523606127 H 0.0 **** 0.06
27669 H 72.87610779933061 16.310642032862177 7.928886760539626 H 0.0 **** 0.06
27670 H 74.30643177455566 15.488921532957924 7.258130236521396 H 0.0 **** 0.06
27671 C 24.532281876150904 31.6064780989648 103.13718451263145 C 0.0 **** -0.24
27672 H 25.16947481926394 32.14951593075983 102.44020157736222 H 0.0 **** 0.06
27673 H 23.815003828396698 31.004293885772256 102.57909439992815 H 0.0 **** 0.06
27674 H 23.997946134986535 32.31522231665912 103.76995472227523 H 0.0 **** 0.06
27675 H 25.146983976852283 30.954663045907978 103.7595579567805 H 0.0 **** 0.06
27676 C 43.72173604576466 142.94355754885305 57.820292091690845 C 0.0 **** -0.24
27677 H 44.105961234248326 142.64053536922415 58.79451781563071 H 0.0 **** 0.06
27678 H 43.830088375324905 144.02224904434672 57.70704185403953 H 0.0 **** 0.06
27679 H 42.669039863849136 142.67359006011804 57.74524911079632 H 0.0 **** 0.06
27680 H 44.28386847197709 142.43731354940445 57.035166401065126 H 0.0 **** 0.06
27681 C 20.65228661601401 45.733074531881044 39.046746474211005 C 0.0 **** -0.24
27682 H 21.030209181830713 45.20490685753097 38.17171926945224 H 0.0 **** 0.06
27683 H 19.93492221557176 45.1022887242965 39.57111824045057 H 0.0 **** 0.06
27684 H 20.163516969012534 46.6550514115101 38.73092838306002 H 0.0 **** 0.06
27685 H 21.482093918200974 45.97185555936687 39.71277551079851 H 0.0 **** 0.06
27686 C 116.67047232857709 117.76452018621893 75.64095709617273 C 0.0 **** -0.24
27687 H 117.6967184342686 117.4067178796995 75.56234663293799 H 0.0 **** 0.06
27688 H 116.13545669447899 117.17211012165677 76.38498051380519 H 0.0 **** 0.06
27689 H 116.17605842767489 117.66522753083933 74.67403565158314 H 0.0 **** 0.06
27690 H 116.67261609814213 118.81135437069412 75.94335213139463 H 0.0 **** 0.06
27691 C 110.63746591002575 3.6183603335584706 162.11385799228907 C 0.0 **** -0.24
27692 H 110.29279213539499 4.072466494666074 163.04202593184138 H 0.0 **** 0.06
27693 H 110.27634365824363 2.59088653971002 162.05632935529124 H 0.0 **** 0.06
27694 H 111.72701356687682 3.6217369582706525 162.0909086067451 H 0.0 **** 0.06
27695 H 110.25367966126336 4.186157305184551 161.26659836064235 H 0.0 **** 0.06
27696 C 29.005912767822068 121.42705117167918 83.90746332074865 C 0.0 **** -0.24
27697 H 28.248276229955138 120.66278545427463 84.0822116828642 H 0.0 **** 0.06
27698 H 29.77506313910949 121.35673262649797 84.67656551958147 H 0.0 **** 0.06
27699 H 28.541582514713497 122.41283073539799 83.94658204944699 H 0.0 **** 0.06
27700 H 29.456491159721722 121.27496184201726 82.92677268242709 H 0.0 **** 0.06
27701 C 82.44266052837759 47.736614773999406 163.00171911635726 C 0.0 **** -0.24
27702 H 82.12058296703219 48.76703008435881 163.15193734545238 H 0.0 **** 0.06
27703 H 83.41019831507862 47.728225211641856 162.50016810019724 H 0.0 **** 0.06
27704 H 81.70997810850713 47.21271368244385 162.3875731131975 H 0.0 **** 0.06
27705 H 82.53043706908784 47.238901468781506 163.96792145229176 H 0.0 **** 0.06
27706 C 95.76751552753555 138.90400818330193 102.35074511560225 C 0.0 **** -0.24
27707 H 96.4115641067084 139.7716060085605 102.49211912231561 H 0.0 **** 0.06
27708 H 96.30769693003364 137.99962579639026 102.63330090804516 H 0.0 **** 0.06
27709 H 95.47251549040419 138.8377329956935 101.3032577515578 H 0.0 **** 0.06
27710 H 94.87884249984569 139.00618362437757 102.97232581875645 H 0.0 **** 0.06
27711 C 128.14108541299086 102.41218501955282 24.31403862632998 C 0.0 **** -0.24
27712 H 128.9633923899944 102.48663945098272 23.60301757506268 H 0.0 **** 0.06
27713 H 128.52584298514552 102.52755451357658 25.327060176158398 H 0.0 **** 0.06
27714 H 127.66222826052817 101.43770877861402 24.21521512524012 H 0.0 **** 0.06
27715 H 127.41280960832472 103.196642820352 24.10988310327459 H 0.0 **** 0.06
27716 C 112.90851586419745 29.594994286852256 58.60160394411787 C 0.0 **** -0.24
27717 H 113.8107512217573 29.089220373858225 58.94545608184596 H 0.0 **** 0.06
27718 H 112.77822758069135 29.418691302787934 57.53393339449222 H 0.0 **** 0.06
27719 H 112.99928967926672 30.665074146559704 58.786014820852856 H 0.0 **** 0.06
27720 H 112.0453808400722 29.204737957659574 59.14187808127146 H 0.0 **** 0.06
27721 C 148.36713064512958 32.562726894490694 132.88654885746533 C 0.0 **** -0.24
27722 H 148.62053791448102 33.43367602356312 132.28242507452705 H 0.0 **** 0.06
27723 H 148.9876762717405 31.718598104634964 132.58542944252198 H 0.0 **** 0.06
27724 H 147.31668474858918 32.312898992539104 132.74130220312364 H 0.0 **** 0.06
27725 H 148.54522726735001 32.78758744250098 133.93927369301022 H 0.0 **** 0.06
27726 C 99.26539639191074 5.919989689624977 69.99017824555835 C 0.0 **** -0.24
27727 H 99.55698743690755 6.882580260613821 70.41070321481459 H 0.0 **** 0.06
27728 H 98.79530519648534 5.31346383106181 70.7656219209515 H 0.0 **** 0.06
27729 H 100.14851677602064 5.4064968651216105 69.61107183713682 H 0.0 **** 0.06
27730 H 98.5593430330855 6.079405567428687 69.175314813738 H 0.0 **** 0.06
27731 C 120.90973838043496 169.53202169821728 114.86999969226179 C 0.0 **** -0.24
27732 H 121.88441523265658 169.17711530910142 114.53560372255419 H 0.0 **** 0.06
27733 H 120.12879164139736 169.07758113971002 114.25900607575574 H 0.0 **** 0.06
27734 H 120.86438554519393 170.61595460327942 114.7706682911251 H 0.0 **** 0.06
27735 H 120.76117343921229 169.25671115372785 115.91405751746635 H 0.0 **** 0.06
27736 C 106.94402162286596 151.8284433111854 32.787373545961614 C 0.0 **** -0.24
27737 H 107.60969204212714 151.6917135401334 33.63989396309685 H 0.0 **** 0.06
27738 H 107.33110360946733 152.62166652642597 32.14682949141239 H 0.0 **** 0.06
27739 H 105.94966096646505 152.0993393393233 33.14191748485334 H 0.0 **** 0.06
27740 H 106.88612627735853 150.89887204866295 32.219856478590344 H 0.0 **** 0.06
27741 C 56.31046104654706 161.10625261113006 28.647435260951113 C 0.0 **** -0.24
27742 H 56.49740479548342 161.65285374895512 27.7230038566629 H 0.0 **** 0.06
27743 H 55.93230472795233 160.1115333002578 28.411226707356263 H 0.0 **** 0.06
27744 H 55.5721485710942 161.64352094840092 29.243626202012308 H 0.0 **** 0.06
27745 H 57.23817148381906 161.01871613895474 29.211562775124435 H 0.0 **** 0.06
27746 C 40.60243205397114 70.02483529350987 107.34178094348647 C 0.0 **** -0.24
27747 H 39.792652089783275 70.15747150033395 106.624252384116 H 0.0 **** 0.06
27748 H 41.404828896697694 70.72748302620835 107.11600967118312 H 0.0 **** 0.06
27749 H 40.982406369576765 69.00556764963689 107.2749440904501 H 0.0 **** 0.06
27750 H 40.22977609751847 70.20938855767572 108.34822008867593 H 0.0 **** 0.06
27751 C 83.0593483777014 106.74709345771282 123.06146601688613 C 0.0 **** -0.24
27752 H 82.9560496608098 107.57755022458448 123.75988216703624 H 0.0 **** 0.06
27753 H 82.08632950150339 106.51699238045364 122.62546143711654 H 0.0 **** 0.06
27754 H 83.43631559376128 105.87252570714116 123.59131329843493 H 0.0 **** 0.06
27755 H 83.75676548362297 107.02165540617224 122.27027495764216 H 0.0 **** 0.06
27756 C 83.35959577997124 15.989013474844228 0.4487387864348875 C 0.0 **** -0.24
27757 H 83.05727482631575 16.925412349805896 -0.020888078404595944 H 0.0 **** 0.06
27758 H 82.94116652174826 15.151610284983349 -0.10897083151533593 H 0.0 **** 0.06
27759 H 82.99324038140253 15.963860028803737 1.4743791592614457 H 0.0 **** 0.06
27760 H 84.44802566070973 15.918484773656473 0.4493092117128299 H 0.0 **** 0.06
27761 C 137.57219871254296 160.96977266856538 119.77084710454108 C 0.0 **** -0.24
27762 H 138.11884660495946 161.14121305048738 120.69755279210591 H 0.0 **** 0.06
27763 H 137.51506313011663 161.90016417370242 119.20513924690334 H 0.0 **** 0.06
27764 H 136.56490102445525 160.6226523155513 120.00167609334807 H 0.0 **** 0.06
27765 H 138.08903138514358 160.21581983445444 119.17778869722218 H 0.0 **** 0.06
27766 C 128.9114501088951 118.10630828319879 38.43229111881004 C 0.0 **** -0.24
27767 H 129.38261354431634 118.2372837262275 39.40694832188183 H 0.0 **** 0.06
27768 H 128.2318542008583 118.9374110396935 38.243630585109315 H 0.0 **** 0.06
27769 H 128.35322422649597 117.16922865351219 38.42229785933273 H 0.0 **** 0.06
27770 H 129.67809749162214 118.08054122241822 37.65861353540794 H 0.0 **** 0.06
27771 C 79.19295592910669 60.674397359676846 35.35130780132141 C 0.0 **** -0.24
27772 H 79.87226644654092 61.05743274222249 34.59094193394185 H 0.0 **** 0.06
27773 H 78.90441247203105 61.48411069031954 36.02233254774734 H 0.0 **** 0.06
27774 H 79.6904055487532 59.88905209825441 35.92127526422621 H 0.0 **** 0.06
27775 H 78.3023016959894 60.266154161024474 34.87184480946689 H 0.0 **** 0.06
27776 C 34.09540418576559 4.0438978935366094 91.01990419296207 C 0.0 **** -0.24
27777 H 35.060643850213964 4.070575369969674 90.51387761510985 H 0.0 **** 0.06
27778 H 33.841907026051175 5.043998650262296 91.372681564834 H 0.0 **** 0.06
27779 H 34.14892421084883 3.3611698968694554 91.86869410305451 H 0.0 **** 0.06
27780 H 33.33072144640256 3.698655433741436 90.32387104343417 H 0.0 **** 0.06
27781 C 48.710286721124646 37.330497863054404 44.5465378724582 C 0.0 **** -0.24
27782 H 48.74558225904063 36.30104515968213 44.1908687491873 H 0.0 **** 0.06
27783 H 49.45047849081482 37.92461455645116 44.010973990061075 H 0.0 **** 0.06
27784 H 48.92820062674265 37.35355328104055 45.61357166756932 H 0.0 **** 0.06
27785 H 47.71643571080452 37.7412700269449 44.37001430293827 H 0.0 **** 0.06
27786 C 40.1678006419466 38.874821745413215 171.96738605717104 C 0.0 **** -0.24
27787 H 39.26594319279263 38.55390515072705 172.4890189500878 H 0.0 **** 0.06
27788 H 40.110195121697075 38.56897478846935 170.92200073473745 H 0.0 **** 0.06
27789 H 41.0398562207763 38.41570120331437 172.4329497778701 H 0.0 **** 0.06
27790 H 40.254619421903556 39.959725868344435 172.02474214924536 H 0.0 **** 0.06
27791 C 99.31995945239845 61.62329601377746 171.39741814080264 C 0.0 **** -0.24
27792 H 98.47058388369624 62.3054109709862 171.35614439102665 H 0.0 **** 0.06
27793 H 100.16689600881833 62.12519620993737 171.86467591940863 H 0.0 **** 0.06
27794 H 99.5905495267597 61.31699974295441 170.3872657895365 H 0.0 **** 0.06
27795 H 99.04982757991559 60.74385692417172 171.98304163649306 H 0.0 **** 0.06
27796 C 21.081623214781473 41.573143580685326 126.30004741328986 C 0.0 **** -0.24
27797 H 21.2298880726961 40.55494990436739 125.9387243077044 H 0.0 **** 0.06
27798 H 20.484851053856517 41.55087434402287 127.21211224926998 H 0.0 **** 0.06
27799 H 20.563521885032912 42.15691427756934 125.54020734597094 H 0.0 **** 0.06
27800 H 22.050127872998644 42.027556804280096 126.51119797918594 H 0.0 **** 0.06
27801 C 22.053891641092093 126.13732946887049 33.93441893115266 C 0.0 **** -0.24
27802 H 21.202713130262566 125.87329027740614 34.56204352752866 H 0.0 **** 0.06
27803 H 22.711664109439624 125.27479848215341 33.83266024366725 H 0.0 **** 0.06
27804 H 22.60155602617607 126.96049085738548 34.39319472835285 H 0.0 **** 0.06
27805 H 21.69836703666681 126.44266516190925 32.95060414221632 H 0.0 **** 0.06
27806 C 18.817018289467 44.62072628984173 7.219260770975787 C 0.0 **** -0.24
27807 H 18.342135649757324 44.22085771361836 6.324629159508575 H 0.0 **** 0.06
27808 H 18.106813597911355 45.245583296246224 7.760296063169449 H 0.0 **** 0.06
27809 H 19.683167969725787 45.2186788816921 6.933840649539313 H 0.0 **** 0.06
27810 H 19.138920743504855 43.7981181978887 7.858592413104972 H 0.0 **** 0.06
27811 C 123.07480123709882 106.27684539770712 21.23997219626409 C 0.0 **** -0.24
27812 H 122.60552580692479 105.72439293840728 22.05392553117815 H 0.0 **** 0.06
27813 H 123.08403850828881 105.65904588149192 20.341629480725487 H 0.0 **** 0.06
27814 H 124.09740792829245 106.53198357396172 21.516050484911204 H 0.0 **** 0.06
27815 H 122.51060674882388 107.18918383946865 21.047474607292514 H 0.0 **** 0.06
27816 C 118.9410012531882 46.00731326999568 82.92357880650515 C 0.0 **** -0.24
27817 H 117.86913033516248 46.17700419039036 82.81587576497812 H 0.0 **** 0.06
27818 H 119.14968174236256 44.94047843559437 82.8478552602988 H 0.0 **** 0.06
27819 H 119.27000845697813 46.37411802635975 83.89579108393663 H 0.0 **** 0.06
27820 H 119.47424559824 46.53955259640372 82.13550585985315 H 0.0 **** 0.06
27821 C 3.736855352608984 170.97624909273645 45.790295478872665 C 0.0 **** -0.24
27822 H 4.083441784715603 171.97263273813374 46.064550217613075 H 0.0 **** 0.06
27823 H 4.294490897779724 170.62331278600163 44.92230309967553 H 0.0 **** 0.06
27824 H 2.674480931536607 171.01650133816554 45.548505180231345 H 0.0 **** 0.06
27825 H 3.8935976100878236 170.29425757065624 46.62551676119358 H 0.0 **** 0.06
27826 C 152.94533283721557 105.73529824405145 47.51026042820642 C 0.0 **** -0.24
27827 H 153.46822836724513 106.3042294518884 46.741198829131704 H 0.0 **** 0.06
27828 H 152.650373217572 104.76615918328866 47.10704893469779 H 0.0 **** 0.06
27829 H 152.05925491414274 106.28283904687243 47.827173810948906 H 0.0 **** 0.06
27830 H 153.60645917815114 105.58686746481382 48.36392045609047 H 0.0 **** 0.06
27831 C 157.10917629084238 9.129037786447327 151.68483831115515 C 0.0 **** -0.24
27832 H 157.74290505977993 8.241501140057352 151.68677950717728 H 0.0 **** 0.06
27833 H 156.81816563538598 9.363370519459806 150.66057117267118 H 0.0 **** 0.06
27834 H 157.65963197633033 9.96929918306094 152.107317296053 H 0.0 **** 0.06
27835 H 156.21792760430645 8.93903925137306 152.2825301281096 H 0.0 **** 0.06
27836 C 80.9145839148872 158.42909041870644 26.21558187192545 C 0.0 **** -0.24
27837 H 80.46518954137628 158.13145263423905 25.268730984774493 H 0.0 **** 0.06
27838 H 81.32465856273052 159.43448077289867 26.12188985495675 H 0.0 **** 0.06
27839 H 81.71302270359377 157.73329931669053 26.473948734938972 H 0.0 **** 0.06
27840 H 80.15509031125788 158.41713961366787 26.996830748760658 H 0.0 **** 0.06
27841 C 114.03336346137075 85.63337664423403 50.95501246432032 C 0.0 **** -0.24
27842 H 114.34318363798536 84.81748760097253 50.30135602903793 H 0.0 **** 0.06
27843 H 114.53194050199335 86.55348700872878 50.64762820897059 H 0.0 **** 0.06
27844 H 114.30591741430362 85.39842266893339 51.98388959816239 H 0.0 **** 0.06
27845 H 112.95355704773942 85.76421254752637 50.88635205028075 H 0.0 **** 0.06
27846 C 13.632368951161695 49.64791339804185 150.82230425001524 C 0.0 **** -0.24
27847 H 12.77361247624981 49.994612453261766 150.24815510145328 H 0.0 **** 0.06
27848 H 14.517579438117771 50.21043718033846 150.52539925610978 H 0.0 **** 0.06
27849 H 13.793673079448055 48.58729052250378 150.6305041754092 H 0.0 **** 0.06
27850 H 13.444120298559262 49.80093452693771 151.8855211596355 H 0.0 **** 0.06
27851 C 114.32767668697733 16.025866605010663 124.01521246742942 C 0.0 **** -0.24
27852 H 113.62933083099557 16.84714615586492 124.1740303834934 H 0.0 **** 0.06
27853 H 114.02980745594544 15.461039394189669 123.13188788055066 H 0.0 **** 0.06
27854 H 114.32247459652837 15.370250046809588 124.88557735190591 H 0.0 **** 0.06
27855 H 115.33073833754992 16.426487724088048 123.86893797550738 H 0.0 **** 0.06
27856 C 150.20846691347677 110.39342793669846 154.4374673118563 C 0.0 **** -0.24
27857 H 149.78646962438089 111.21715276574466 155.01274625602252 H 0.0 **** 0.06
27858 H 151.29638819692252 110.43802481298215 154.48488646944037 H 0.0 **** 0.06
27859 H 149.8858569787134 110.47328672444641 153.3986821421119 H 0.0 **** 0.06
27860 H 149.86446895143243 109.4466508402042 154.85280415371534 H 0.0 **** 0.06
27861 C 37.418534821544995 125.69368214271765 89.33104967007218 C 0.0 **** -0.24
27862 H 36.427099764233986 125.60642145096926 88.88547777747505 H 0.0 **** 0.06
27863 H 37.64466052956726 124.78812824798055 89.8951166228925 H 0.0 **** 0.06
27864 H 37.44217646367986 126.55413680029088 89.99911928953792 H 0.0 **** 0.06
27865 H 38.159467487370875 125.82543649535998 88.54246184152915 H 0.0 **** 0.06
27866 C 121.56320391807864 108.43205335828966 128.58958135317272 C 0.0 **** -0.24
27867 H 122.04475705561245 108.31242183252962 127.6188243949336 H 0.0 **** 0.06
27868 H 122.25404278847532 108.91413586464523 129.28130694793848 H 0.0 **** 0.06
27869 H 121.28178236390275 107.45297283739802 128.9791830329904 H 0.0 **** 0.06
27870 H 120.67125162898631 109.04874692864513 128.47883235428105 H 0.0 **** 0.06
27871 C 38.32183879526134 129.57895615794064 167.31585760471603 C 0.0 **** -0.24
27872 H 37.67535999202073 128.74595297178422 167.04142362898185 H 0.0 **** 0.06
27873 H 37.90253046922997 130.50755453596327 166.92709958608913 H 0.0 **** 0.06
27874 H 39.31403399843188 129.42294913473194 166.89242322718144 H 0.0 **** 0.06
27875 H 38.396095568719076 129.6393999614578 168.40123617388844 H 0.0 **** 0.06
27876 C 163.32517239722486 92.01521963538147 82.99903812138537 C 0.0 **** -0.24
27877 H 162.31050541418512 92.39973716791008 83.09896482339104 H 0.0 **** 0.06
27878 H 163.4681029187335 91.18582158039275 83.69215566934417 H 0.0 **** 0.06
27879 H 164.03787204117003 92.80749550962983 83.2287343337916 H 0.0 **** 0.06
27880 H 163.48333685567422 91.66844227583599 81.97826163833841 H 0.0 **** 0.06
27881 C 110.26343986206291 170.58038919203557 145.15718578984675 C 0.0 **** -0.24
27882 H 110.90217535974864 169.72988858846813 145.3975186840724 H 0.0 **** 0.06
27883 H 110.36464781417399 171.34011625197942 145.9325443804296 H 0.0 **** 0.06
27884 H 109.22541433019691 170.25130368048056 145.10399818939274 H 0.0 **** 0.06
27885 H 110.56237883166642 170.99914105832264 144.1966918915875 H 0.0 **** 0.06
27886 C 81.81085937763484 50.7105363002883 109.79623500998616 C 0.0 **** -0.24
27887 H 81.6473948845651 51.30003879117106 108.89409901290583 H 0.0 **** 0.06
27888 H 80.98287462560326 50.013313376718074 109.92987508770182 H 0.0 **** 0.06
27889 H 81.87041556883386 51.37506500383084 110.658507509157 H 0.0 **** 0.06
27890 H 82.74345009447921 50.15417145918555 109.7018957007549 H 0.0 **** 0.06
27891 C 97.05033217533287 18.098952967815052 39.47555658388643 C 0.0 **** -0.24
27892 H 97.43279551163121 17.091894913796068 39.31255650163078 H 0.0 **** 0.06
27893 H 97.80000274263091 18.82698084589697 39.16532499446163 H 0.0 **** 0.06
27894 H 96.82730549895169 18.235128113782025 40.53402983889106 H 0.0 **** 0.06
27895 H 96.14124283538223 18.240837944422992 38.89134394778344 H 0.0 **** 0.06
27896 C 161.7766475707644 71.42700702769422 130.8695903870273 C 0.0 **** -0.24
27897 H 160.7883579186954 71.59748699677421 131.2980099977723 H 0.0 **** 0.06
27898 H 161.99691930107244 70.35875300616723 130.88031152433555 H 0.0 **** 0.06
27899 H 162.5240725994393 71.95828733836294 131.45932698882186 H 0.0 **** 0.06
27900 H 161.79526762553735 71.7924218896629 129.8437037425131 H 0.0 **** 0.06
27901 C 155.10601325805564 60.40707779428418 40.85697467950645 C 0.0 **** -0.24
27902 H 154.97923625505197 61.30181255322867 41.46601036988433 H 0.0 **** 0.06
27903 H 154.12727397194698 60.019275647076896 40.57294102933383 H 0.0 **** 0.06
27904 H 155.6445106324315 59.6521951477243 41.42913455870209 H 0.0 **** 0.06
27905 H 155.67356830059708 60.65633602549845 39.9597774749608 H 0.0 **** 0.06
27906 C 126.35553219785228 62.84085096052705 66.82350269865941 C 0.0 **** -0.24
27907 H 127.40491987332007 62.70192082760968 66.56549672723386 H 0.0 **** 0.06
27908 H 125.73234047152769 62.27944071671398 66.12710855243171 H 0.0 **** 0.06
27909 H 126.10334597963146 63.89983411826417 66.76294706340602 H 0.0 **** 0.06
27910 H 126.18006590535921 62.48357242179941 67.83859029663262 H 0.0 **** 0.06
27911 C 80.33480787384156 58.271802748010245 110.46764220088679 C 0.0 **** -0.24
27912 H 81.22776532788487 58.148460974993355 109.85448236051113 H 0.0 **** 0.06
27913 H 79.48229413823708 58.49187728834575 109.82596963617615 H 0.0 **** 0.06
27914 H 80.48610940627344 59.09411454596429 111.16739526886448 H 0.0 **** 0.06
27915 H 80.14649102784904 57.353254367296444 111.02273480669854 H 0.0 **** 0.06
27916 C 26.326337944217357 127.64664640582384 168.63213532691856 C 0.0 **** -0.24
27917 H 26.276930571174006 126.58273333532196 168.39741397626148 H 0.0 **** 0.06
27918 H 25.943240009005024 127.81387667791444 169.6388627958582 H 0.0 **** 0.06
27919 H 25.7232791898185 128.20405380768074 167.91636562010024 H 0.0 **** 0.06
27920 H 27.36187265477315 127.98292237772762 168.5758456087505 H 0.0 **** 0.06
27921 C 55.73803120511664 168.42514844977623 42.66282156741917 C 0.0 **** -0.24
27922 H 56.75591783813957 168.11157039051926 42.430427941719245 H 0.0 **** 0.06
27923 H 55.04846362046294 167.98073175930102 41.94514159998906 H 0.0 **** 0.06
27924 H 55.67224319770855 169.51200661027116 42.60648791413482 H 0.0 **** 0.06
27925 H 55.477924215913504 168.09652320219257 43.668969162210686 H 0.0 **** 0.06
27926 C 100.63167186135166 9.583840655225742 34.32039527605329 C 0.0 **** -0.24
27927 H 99.66059404534332 10.073888356131079 34.37844065985654 H 0.0 **** 0.06
27928 H 100.94084645848136 9.512153311481683 33.27720727647514 H 0.0 **** 0.06
27929 H 100.56027215054405 8.58301577389966 34.74694403024843 H 0.0 **** 0.06
27930 H 101.36653234617216 10.16518283538619 34.87784261872848 H 0.0 **** 0.06
27931 C 162.69018129837795 92.09541997883858 87.15093575309923 C 0.0 **** -0.24
27932 H 161.97688143976532 91.95219829079753 86.33927816233279 H 0.0 **** 0.06
27933 H 163.68821111493432 91.81817657614073 86.81069351231288 H 0.0 **** 0.06
27934 H 162.40788482151433 91.47073292967485 87.99778281490069 H 0.0 **** 0.06
27935 H 162.68748220609754 93.14269257641052 87.45533030584777 H 0.0 **** 0.06
27936 C 82.01231398492035 124.55453973547242 84.75595639858568 C 0.0 **** -0.24
27937 H 82.82517618466318 124.52236142368238 85.48093278790589 H 0.0 **** 0.06
27938 H 82.1401390744349 123.75135797319876 84.03055859365145 H 0.0 **** 0.06
27939 H 82.02188648035548 125.51544574461644 84.24190953104 H 0.0 **** 0.06
27940 H 81.061025511146 124.4293339906043 85.27322223796114 H 0.0 **** 0.06
27941 C 154.64329072545098 54.680734707215294 11.849706982392888 C 0.0 **** -0.24
27942 H 154.3078559857496 53.73395126487473 12.275472049150551 H 0.0 **** 0.06
27943 H 154.79869638778567 54.561499895689096 10.777173840057259 H 0.0 **** 0.06
27944 H 155.57794489504232 54.97949126677456 12.322148755165756 H 0.0 **** 0.06
27945 H 153.88614298920615 55.44512579028468 12.025581294600357 H 0.0 **** 0.06
27946 C 1.0363531860644457 42.41489427410352 62.73366694127793 C 0.0 **** -0.24
27947 H 1.2836850082252624 41.58186296470819 62.07448408715305 H 0.0 **** 0.06
27948 H 1.6431841955569553 43.280882817033785 62.46584759011046 H 0.0 **** 0.06
27949 H 1.2411210443092955 42.133216055876346 63.766338563292265 H 0.0 **** 0.06
27950 H -0.019568504283370203 42.662395800919796 62.62613762261168 H 0.0 **** 0.06
27951 C 144.2021785372958 36.35281730554095 119.36470174443056 C 0.0 **** -0.24
27952 H 143.56361926725367 35.80394248721416 120.05639796363943 H 0.0 **** 0.06
27953 H 143.93279184835836 36.09581404656626 118.33998161795543 H 0.0 **** 0.06
27954 H 145.244059357023 36.08614677795222 119.5447445130228 H 0.0 **** 0.06
27955 H 144.06893717702934 37.42342091576472 119.51985918828049 H 0.0 **** 0.06
27956 C 119.48535820332984 3.7892759027043894 45.90202431624925 C 0.0 **** -0.24
27957 H 118.47526464625824 4.176725168998871 46.033991165009056 H 0.0 **** 0.06
27958 H 119.45102382237408 2.880143518545623 45.300938907540086 H 0.0 **** 0.06
27959 H 119.91888928442538 3.564890360926512 46.87646523691197 H 0.0 **** 0.06
27960 H 120.09657766638927 4.5372663591071785 45.39560525039931 H 0.0 **** 0.06
27961 C 170.70014950351444 42.86911343399743 23.95724252032369 C 0.0 **** -0.24
27962 H 170.70390552485998 43.9568256952376 24.020945648878524 H 0.0 **** 0.06
27963 H 170.7321584591778 42.567174571529165 22.910203578491576 H 0.0 **** 0.06
27964 H 169.79277451111605 42.48057809795381 24.420009319394694 H 0.0 **** 0.06
27965 H 171.57215614953833 42.47206088615289 24.476912481528416 H 0.0 **** 0.06
27966 C 159.23827236097424 118.24594375396578 13.662809824695756 C 0.0 **** -0.24
27967 H 159.54102008137536 119.19305715641025 14.109775388980097 H 0.0 **** 0.06
27968 H 158.19192173996828 118.30357110150459 13.363982727467885 H 0.0 **** 0.06
27969 H 159.36652064037216 117.44442501338943 14.388517204108325 H 0.0 **** 0.06
27970 H 159.85653406503644 118.04541225027376 12.787144478577062 H 0.0 **** 0.06
27971 C 121.19861726882067 116.78328655746637 111.929087336556 C 0.0 **** -0.24
27972 H 121.00096210124406 117.75122914427573 111.46827308466112 H 0.0 **** 0.06
27973 H 122.16700279424211 116.41230670333726 111.59047891749145 H 0.0 **** 0.06
27974 H 120.41826749517801 116.07816349473353 111.64158446397846 H 0.0 **** 0.06
27975 H 121.20979081342404 116.89172600043312 113.01309618900768 H 0.0 **** 0.06
27976 C 31.82492229436525 72.59373647720973 66.17461482432093 C 0.0 **** -0.24
27977 H 31.498286874887697 71.55731195533929 66.25800361458397 H 0.0 **** 0.06
27978 H 30.96210885515916 73.25421299441169 66.25326525168563 H 0.0 **** 0.06
27979 H 32.31200908574564 72.74437206224614 65.21045840370485 H 0.0 **** 0.06
27980 H 32.52943381621293 72.81723555367738 66.97642895110693 H 0.0 **** 0.06
27981 C 59.99644789777727 43.00483573437728 40.92739996574596 C 0.0 **** -0.24
27982 H 59.54987544856456 43.466336138801154 40.04688102855869 H 0.0 **** 0.06
27983 H 60.220457696103466 41.95883737217824 40.714669474506195 H 0.0 **** 0.06
27984 H 59.29915441569523 43.06465598213629 41.76220562191418 H 0.0 **** 0.06
27985 H 60.91688422860241 43.52844870221105 41.18425320153568 H 0.0 **** 0.06
27986 C 97.41601590113902 144.46136907141096 139.62885103983808 C 0.0 **** -0.24
27987 H 97.35112738937582 143.52891993087388 139.0688767168822 H 0.0 **** 0.06
27988 H 98.42526422395741 144.86606160650985 139.544068964682 H 0.0 **** 0.06
27989 H 97.18590462539791 144.27253935703425 140.67741831222838 H 0.0 **** 0.06
27990 H 96.70194291103775 145.17878842214364 139.22274333928007 H 0.0 **** 0.06
27991 C 79.86069601229762 168.73396528109797 128.36290899568363 C 0.0 **** -0.24
27992 H 79.57162660827795 167.9158079266674 129.02256315326483 H 0.0 **** 0.06
27993 H 80.09077959445862 168.3374579694693 127.37343099523764 H 0.0 **** 0.06
27994 H 80.74112489174865 169.23293828688176 128.7673321665652 H 0.0 **** 0.06
27995 H 79.04071282551871 169.44719397825003 128.28741365357791 H 0.0 **** 0.06
27996 C 94.37485915726165 19.78527754175039 17.05610793822615 C 0.0 **** -0.24
27997 H 95.25348217794823 20.27746874477009 16.640118071541366 H 0.0 **** 0.06
27998 H 93.84600689950639 19.25542930363514 16.263652685471158 H 0.0 **** 0.06
27999 H 93.71494448663103 20.53125875202653 17.498741918812584 H 0.0 **** 0.06
28000 H 94.68575376964787 19.074805499434518 17.822826423117988 H 0.0 **** 0.06
28001 C 62.04984064351498 76.15320067536872 10.404718064541555 C 0.0 **** -0.24
28002 H 62.30249992186624 75.25857599858865 9.83744026408639 H 0.0 **** 0.06
28003 H 62.1440707925035 77.02906555113108 9.762138414629206 H 0.0 **** 0.06
28004 H 62.72792777360644 76.25064073197687 11.25227776855617 H 0.0 **** 0.06
28005 H 61.025037214849036 76.07696370993406 10.76699284928661 H 0.0 **** 0.06
28006 C 93.57904882605283 168.70516608381882 147.94469321984974 C 0.0 **** -0.24
28007 H 92.8879330641555 169.51460506131127 147.7087403820459 H 0.0 **** 0.06
28008 H 93.14453215470826 168.0723100322083 148.71900044991412 H 0.0 **** 0.06
28009 H 94.51962922456033 169.12303466060277 148.30189696831272 H 0.0 **** 0.06
28010 H 93.76167367066597 168.11098090264613 147.04932998569046 H 0.0 **** 0.06
28011 C 93.05366873063707 42.25154068766443 167.0413202446524 C 0.0 **** -0.24
28012 H 92.19298029110323 42.14785529843786 166.38147639770054 H 0.0 **** 0.06
28013 H 93.72905886883959 43.008365095055865 166.64163014101484 H 0.0 **** 0.06
28014 H 93.57581804047751 41.29720381126975 167.10870277238752 H 0.0 **** 0.06
28015 H 92.71681772212767 42.55273854589407 168.03347166750675 H 0.0 **** 0.06
28016 C 23.643114655272484 54.098628917853105 21.740959050371373 C 0.0 **** -0.24
28017 H 24.256902060045263 53.227979914859645 21.511630684263253 H 0.0 **** 0.06
28018 H 24.21727583846763 55.00672520904389 21.556912185060042 H 0.0 **** 0.06
28019 H 23.34247393452219 54.06511108828154 22.788504237120947 H 0.0 **** 0.06
28020 H 22.756093594358106 54.094550486274585 21.108165904783846 H 0.0 **** 0.06
28021 C 57.85462905032901 164.6202892706802 107.08840693127655 C 0.0 **** -0.24
28022 H 57.1024678701484 164.46436031071374 106.31581074197379 H 0.0 **** 0.06
28023 H 58.71479803058283 165.13506262632905 106.65909243908305 H 0.0 **** 0.06
28024 H 58.16940083948275 163.65642609537082 107.48855401504613 H 0.0 **** 0.06
28025 H 57.43117461401225 165.2254437948535 107.8908959135602 H 0.0 **** 0.06
28026 C 33.596861293289294 123.27676554639956 33.86592512809813 C 0.0 **** -0.24
28027 H 33.710634832031644 122.19756183117141 33.765864671662484 H 0.0 **** 0.06
28028 H 34.08896023386535 123.77209947761358 33.02813807242728 H 0.0 **** 0.06
28029 H 34.05137221527491 123.60550896449126 34.799673342651886 H 0.0 **** 0.06
28030 H 32.53704796286354 123.53107917975504 33.86778508365842 H 0.0 **** 0.06
28031 C 56.36529062327705 84.75394243694463 147.24411270023717 C 0.0 **** -0.24
28032 H 56.217999760166435 85.76854491323246 147.612186550925 H 0.0 **** 0.06
28033 H 55.61397742831397 84.52993664161666 146.48636861945073 H 0.0 **** 0.06
28034 H 56.270160677118156 84.04992316170825 148.0699058324745 H 0.0 **** 0.06
28035 H 57.359710094337345 84.66776603092858 146.80567257949548 H 0.0 **** 0.06
28036 C 170.83639719071317 22.639871166496164 16.488172520578814 C 0.0 **** -0.24
28037 H 171.5275147851903 21.908247049194472 16.070138078779507 H 0.0 **** 0.06
28038 H 171.394219071419 23.515499507695353 16.822562991937446 H 0.0 **** 0.06
28039 H 170.308449001761 22.20056027853937 17.333675209223543 H 0.0 **** 0.06
28040 H 170.11694829854895 22.937160551247644 15.724673652812413 H 0.0 **** 0.06
28041 C 38.539973847128806 21.760463916915057 135.48466579707335 C 0.0 **** -0.24
28042 H 38.125820671908585 22.69483791897943 135.8618454910353 H 0.0 **** 0.06
28043 H 39.51410969219606 21.9512382562458 135.0330556500247 H 0.0 **** 0.06
28044 H 37.86753955051287 21.342081784136553 134.73569270365016 H 0.0 **** 0.06
28045 H 38.65279112373733 21.054629987987767 136.30707073923736 H 0.0 **** 0.06
28046 C 42.05167499054443 87.33430304623352 63.61950096272494 C 0.0 **** -0.24
28047 H 43.041288009726244 87.44910930194459 64.06150749529752 H 0.0 **** 0.06
28048 H 41.45551452106214 88.22198278977237 63.829502237145505 H 0.0 **** 0.06
28049 H 41.56336266587155 86.4579364025883 64.04555701700491 H 0.0 **** 0.06
28050 H 42.149259601418606 87.20772834486604 62.54083034531919 H 0.0 **** 0.06
28051 C 49.50043398912611 139.1711573011253 78.76396915566045 C 0.0 **** -0.24
28052 H 48.87586232378493 139.10152362065676 79.65487857077403 H 0.0 **** 0.06
28053 H 50.352467584441 139.82105145961904 78.96827670581722 H 0.0 **** 0.06
28054 H 48.91714058559653 139.58411625671965 77.9419284953938 H 0.0 **** 0.06
28055 H 49.85829788520414 138.17783761505365 78.49393285052679 H 0.0 **** 0.06
28056 C 146.12759108281082 149.57646624608134 136.33252576318313 C 0.0 **** -0.24
28057 H 147.0178388652488 149.63349772187718 136.9597199208107 H 0.0 **** 0.06
28058 H 145.4357305593357 150.37175320314884 136.60978891416124 H 0.0 **** 0.06
28059 H 145.64605799181584 148.60901165018765 136.4746477898612 H 0.0 **** 0.06
28060 H 146.4138995049442 149.69002478178794 135.28717504782588 H 0.0 **** 0.06
28061 C 134.59101989093085 112.5070607265597 130.96760830706518 C 0.0 **** -0.24
28062 H 134.92346377682105 111.58924801241614 131.4528485327514 H 0.0 **** 0.06
28063 H 135.10237345744514 113.36010518189269 131.4147468763314 H 0.0 **** 0.06
28064 H 133.5149960508383 112.61760006320714 131.09889773063216 H 0.0 **** 0.06
28065 H 134.824572042022 112.46017507936708 129.90395314021902 H 0.0 **** 0.06
28066 C 124.6869751958182 74.11213647013857 74.03824932889925 C 0.0 **** -0.24
28067 H 124.05152844787091 74.32681706675343 74.89719452204064 H 0.0 **** 0.06
28068 H 124.73767426789169 73.03416111119837 73.88543273789759 H 0.0 **** 0.06
28069 H 125.68859850205672 74.50120491535822 74.22188943668628 H 0.0 **** 0.06
28070 H 124.2699223054102 74.58674146051449 73.15089419578348 H 0.0 **** 0.06
28071 C 65.88828885413503 138.9228138116267 134.3420765346557 C 0.0 **** -0.24
28072 H 66.96242911006533 139.0920534476665 134.41882187311646 H 0.0 **** 0.06
28073 H 65.4739991448489 138.763139130315 135.33785674881966 H 0.0 **** 0.06
28074 H 65.70316034020001 138.0435494098516 133.72488391012104 H 0.0 **** 0.06
28075 H 65.41527199160703 139.79256882702603 133.88644462394524 H 0.0 **** 0.06
28076 C 90.69828781725785 2.1747434771597796 94.71820356057549 C 0.0 **** -0.24
28077 H 91.63357059953103 1.6959372845029748 95.01044484566961 H 0.0 **** 0.06
28078 H 89.93106978287535 1.9542173571475985 95.46094774673963 H 0.0 **** 0.06
28079 H 90.38468552048177 1.7949226262097966 93.7463805950791 H 0.0 **** 0.06
28080 H 90.84690504193976 3.2534725373328115 94.65656947505593 H 0.0 **** 0.06
28081 C 138.00526067020598 16.984735640170754 45.6829536758853 C 0.0 **** -0.24
28082 H 137.8030219162196 16.368094360012037 46.559051398480165 H 0.0 **** 0.06
28083 H 137.16402575119633 17.655758689990307 45.50983505320136 H 0.0 **** 0.06
28084 H 138.1440094366408 16.343681416723257 44.811987851960964 H 0.0 **** 0.06
28085 H 138.90890506743108 17.57054145664199 45.85122587354397 H 0.0 **** 0.06
28086 C 80.84447770131831 66.83857505767551 9.277778936053267 C 0.0 **** -0.24
28087 H 80.3101841492902 67.7576553731169 9.516240525060795 H 0.0 **** 0.06
28088 H 80.42299507866255 66.01344770680907 9.85184115972828 H 0.0 **** 0.06
28089 H 81.8993818655685 66.9555787967658 9.529742360493401 H 0.0 **** 0.06
28090 H 80.74703710895541 66.6276986080515 8.212909162968629 H 0.0 **** 0.06
28091 C 47.49364122854338 129.11637098275727 43.741371532138615 C 0.0 **** -0.24
28092 H 48.318193585255756 129.82088456476282 43.850811980058054 H 0.0 **** 0.06
28093 H 46.82509234310436 129.20444729804726 44.59730325489542 H 0.0 **** 0.06
28094 H 47.88817533290769 128.1019027238564 43.69012547484644 H 0.0 **** 0.06
28095 H 46.94579888459755 129.33892624174575 42.82573617544135 H 0.0 **** 0.06
28096 C 73.38347786929188 14.044006348274415 88.62036252315568 C 0.0 **** -0.24
28097 H 73.4442122291274 12.960162216272977 88.51584240834634 H 0.0 **** 0.06
28098 H 73.4721273880055 14.312146296449725 89.67342492998716 H 0.0 **** 0.06
28099 H 72.42600239596891 14.392532777730779 88.23532721865028 H 0.0 **** 0.06
28100 H 74.19261497375953 14.508612477715317 88.05739764094442 H 0.0 **** 0.06
28101 C 159.88007165471805 34.02157867211238 144.31477181914707 C 0.0 **** -0.24
28102 H 159.84387142475646 34.8546104388962 145.01630284784468 H 0.0 **** 0.06
28103 H 160.87640611612733 33.58086358710932 144.3246717871981 H 0.0 **** 0.06
28104 H 159.65226544480674 34.3824153536969 143.31126226081045 H 0.0 **** 0.06
28105 H 159.146918682862 33.269838301064 144.60570015405688 H 0.0 **** 0.06
28106 C 78.56715092630544 50.54258838345207 19.446969102306042 C 0.0 **** -0.24
28107 H 78.89350969607202 51.568779913694286 19.61605808351186 H 0.0 **** 0.06
28108 H 77.50327298195523 50.534908076205696 19.209853270082732 H 0.0 **** 0.06
28109 H 78.74337066139154 49.95265931588963 20.34711826758104 H 0.0 **** 0.06
28110 H 79.12779089927442 50.11468119965045 18.61629923460157 H 0.0 **** 0.06
28111 C 122.50469255705025 84.899600321697 109.24675166083381 C 0.0 **** -0.24
28112 H 122.5742242645263 85.34116285817227 110.24107608674746 H 0.0 **** 0.06
28113 H 123.47952051163264 84.51002314267889 108.95434227229117 H 0.0 **** 0.06
28114 H 122.18683333179607 85.65907555220238 108.5331761272335 H 0.0 **** 0.06
28115 H 121.77778710120234 84.08721674697637 109.261054935615 H 0.0 **** 0.06
28116 C 60.146671522517764 93.88372103590044 149.02872137994353 C 0.0 **** -0.24
28117 H 59.48715653861407 93.61485685452837 149.8536196839201 H 0.0 **** 0.06
28118 H 61.183792618999746 93.83885381881828 149.3621474868072 H 0.0 **** 0.06
28119 H 59.9154179044078 94.89405742931046 148.6932824372677 H 0.0 **** 0.06
28120 H 60.00012353627119 93.1852385530558 148.20427482568817 H 0.0 **** 0.06
28121 C 55.53944987403409 137.5997445551612 54.15557286182671 C 0.0 **** -0.24
28122 H 54.575902585055644 137.53481220619156 53.650594066084636 H 0.0 **** 0.06
28123 H 55.37931905256974 137.73784744395186 55.225196588603055 H 0.0 **** 0.06
28124 H 56.10021266441058 138.44667422147666 53.75970365593906 H 0.0 **** 0.06
28125 H 56.10071537309243 136.6812735775084 53.987586992857146 H 0.0 **** 0.06
28126 C 109.06187429839153 20.444652809279404 122.28059080270009 C 0.0 **** -0.24
28127 H 108.69352872673645 20.864528512337586 121.34476116594453 H 0.0 **** 0.06
28128 H 109.70052706285227 21.174695281490642 122.78023756473749 H 0.0 **** 0.06
28129 H 109.63682951015613 19.542248425073808 122.0717367179598 H 0.0 **** 0.06
28130 H 108.21891095531038 20.197680271508034 122.92497850971685 H 0.0 **** 0.06
28131 C 159.32963320978806 64.0515411762678 54.14480773395751 C 0.0 **** -0.24
28132 H 160.39075563624942 64.27397710594134 54.03498687083594 H 0.0 **** 0.06
28133 H 158.74144502433126 64.8652758309395 53.720136371956144 H 0.0 **** 0.06
28134 H 159.08827734338846 63.94054147337475 55.202089912742636 H 0.0 **** 0.06
28135 H 159.09719045979898 63.12370276984652 53.62024648896251 H 0.0 **** 0.06
28136 C 66.29813699803273 151.64309488416916 2.0473089125821105 C 0.0 **** -0.24
28137 H 66.84488701538712 150.75959920261704 2.377167958142195 H 0.0 **** 0.06
28138 H 66.1511583742103 151.59572065289336 0.9677830061436055 H 0.0 **** 0.06
28139 H 66.86812608320868 152.53699786752634 2.297900305609744 H 0.0 **** 0.06
28140 H 65.32905827632139 151.67748452153916 2.545439395627966 H 0.0 **** 0.06
28141 C 106.74400025398506 166.4064511195228 143.10667198072562 C 0.0 **** -0.24
28142 H 106.95468255327273 166.50502673335893 142.04121525440968 H 0.0 **** 0.06
28143 H 105.68864742687992 166.6119760123795 143.28823226851975 H 0.0 **** 0.06
28144 H 107.35395318526878 167.1160840332158 143.66482402809277 H 0.0 **** 0.06
28145 H 106.97791977645136 165.39261147510098 143.43058555076257 H 0.0 **** 0.06
28146 C 130.26464993479416 148.8760839824006 132.0509164129047 C 0.0 **** -0.24
28147 H 130.87546934559248 148.12048564324942 132.54558094528164 H 0.0 **** 0.06
28148 H 129.29004594605613 148.92807988325305 132.5351112555946 H 0.0 **** 0.06
28149 H 130.13691613846152 148.60938177128213 131.00227340175863 H 0.0 **** 0.06
28150 H 130.75843745471417 149.84541022216234 132.12207624520198 H 0.0 **** 0.06
28151 C 36.18295346543515 89.83387115343878 59.9801002014849 C 0.0 **** -0.24
28152 H 36.01301630326668 88.81198366863352 60.31844544022756 H 0.0 **** 0.06
28153 H 37.09642863928762 90.21874927562818 60.43288172519857 H 0.0 **** 0.06
28154 H 35.339280705533994 90.45901973535209 60.27437684040849 H 0.0 **** 0.06
28155 H 36.28229544457626 89.84512890367292 58.8947856785509 H 0.0 **** 0.06
28156 C 147.31043708344055 89.04661874083278 65.93854803518296 C 0.0 **** -0.24
28157 H 146.93509198485626 88.35358697068494 66.69154551843212 H 0.0 **** 0.06
28158 H 147.42221988804405 88.5236066825507 64.98780662554337 H 0.0 **** 0.06
28159 H 148.27714196475216 89.43848581369731 66.25411109110301 H 0.0 **** 0.06
28160 H 146.60521814284485 89.87005116602056 65.81966359020736 H 0.0 **** 0.06
28161 C 4.094769438438796 52.02353914578663 101.67759026302514 C 0.0 **** -0.24
28162 H 4.612553883650413 51.246799633452866 102.24040211926234 H 0.0 **** 0.06
28163 H 3.314405027466563 52.462550380025135 102.29974114986607 H 0.0 **** 0.06
28164 H 3.6471855984854358 51.58808743996576 100.78480939823515 H 0.0 **** 0.06
28165 H 4.805769741098523 52.79637303355776 101.3868850614495 H 0.0 **** 0.06
28166 C 63.67708260765983 114.75391031318884 118.13388687076565 C 0.0 **** -0.24
28167 H 64.66431091168897 114.31317683886098 118.27377423478958 H 0.0 **** 0.06
28168 H 63.00252044564752 114.38531408515038 118.90750301003345 H 0.0 **** 0.06
28169 H 63.29129682528844 114.4770288600507 117.1527736380857 H 0.0 **** 0.06
28170 H 63.75151656941637 115.83881271904605 118.20274554902076 H 0.0 **** 0.06
28171 C 26.24044736488755 129.36409557479442 19.47874459484992 C 0.0 **** -0.24
28172 H 25.37364461412217 129.12278581386207 20.092445436136458 H 0.0 **** 0.06
28173 H 25.908879559927733 129.81588009293333 18.54375008719996 H 0.0 **** 0.06
28174 H 26.8000391433934 128.45342737214676 19.265180435394583 H 0.0 **** 0.06
28175 H 26.88104283918714 130.06560833659145 20.014581799891452 H 0.0 **** 0.06
28176 C 58.946204136913025 15.121566038685671 5.977085711519663 C 0.0 **** -0.24
28177 H 58.30187069348223 15.912957661445233 5.593048054737125 H 0.0 **** 0.06
28178 H 58.33710620342811 14.264149853856168 6.263779599703156 H 0.0 **** 0.06
28179 H 59.49169127504719 15.487495116033415 6.846397997922992 H 0.0 **** 0.06
28180 H 59.653666325451454 14.822228626812176 5.203553190810112 H 0.0 **** 0.06
28181 C 13.194116129132425 121.75237986938436 123.35380075266016 C 0.0 **** -0.24
28182 H 13.173707869637127 122.30369728207245 122.41370299189782 H 0.0 **** 0.06
28183 H 12.249085439692806 121.89446907706278 123.87839378384538 H 0.0 **** 0.06
28184 H 14.012282016761532 122.12000239111012 123.97300382332185 H 0.0 **** 0.06
28185 H 13.340960196910459 120.69217601791718 123.14973514073654 H 0.0 **** 0.06
28186 C 133.66877720825744 138.82702384762393 1.3523273215958653 C 0.0 **** -0.24
28187 H 133.48282875668102 139.53874047783535 2.1558543961399366 H 0.0 **** 0.06
28188 H 133.38136607979385 137.82775657212716 1.6774394638800274 H 0.0 **** 0.06
28189 H 134.7289680708094 138.83649155820078 1.0980776408400814 H 0.0 **** 0.06
28190 H 133.08273211746538 139.10715041500006 0.4768397710925143 H 0.0 **** 0.06
28191 C 30.818192357159887 87.96370225229225 0.18509497466243374 C 0.0 **** -0.24
28192 H 30.033528945374428 88.6588812244533 -0.11467115453601195 H 0.0 **** 0.06
28193 H 30.966943838808078 88.02651954396498 1.2640677406402006 H 0.0 **** 0.06
28194 H 31.74618318148532 88.22031315535179 -0.325479259152587 H 0.0 **** 0.06
28195 H 30.525890391353016 86.94788142741817 -0.08232196248405899 H 0.0 **** 0.06
28196 C 79.1508349751279 151.37220902379016 59.83702702180939 C 0.0 **** -0.24
28197 H 80.0929953001158 150.94802389615234 59.490251766728846 H 0.0 **** 0.06
28198 H 78.32077753718943 150.79192760463218 59.43383685030656 H 0.0 **** 0.06
28199 H 79.07162759537528 152.4045877210462 59.49627109152458 H 0.0 **** 0.06
28200 H 79.11944539646927 151.3461799935768 60.925963360902 H 0.0 **** 0.06
28201 C 4.144821410808959 75.30026974807993 60.212095488396926 C 0.0 **** -0.24
28202 H 3.2163072043397847 75.38038213613288 59.64515403541964 H 0.0 **** 0.06
28203 H 4.992227240588335 75.45956627062476 59.54502189984521 H 0.0 **** 0.06
28204 H 4.213063755032778 74.30860224096455 60.6577732681406 H 0.0 **** 0.06
28205 H 4.154212154368281 76.05461585073829 60.998831121063745 H 0.0 **** 0.06
28206 C 81.08853175757622 37.51069622788303 101.6978101279835 C 0.0 **** -0.24
28207 H 80.80649154038775 38.09914165506089 100.82481329204893 H 0.0 **** 0.06
28208 H 81.89422358036978 38.01631871506095 102.23093093750504 H 0.0 **** 0.06
28209 H 81.42734461044404 36.5256030400826 101.3778703960582 H 0.0 **** 0.06
28210 H 80.22756719229676 37.40356902588374 102.35704524786755 H 0.0 **** 0.06
28211 C 147.52505743041118 24.514360775296588 54.546261855288975 C 0.0 **** -0.24
28212 H 147.51280945579822 24.18551036871655 55.586174172330686 H 0.0 **** 0.06
28213 H 147.98971720453957 25.49832866762685 54.48276644564095 H 0.0 **** 0.06
28214 H 146.5030684897359 24.569756603375403 54.171677972634 H 0.0 **** 0.06
28215 H 148.0938070757177 23.803453976710443 53.94805661381355 H 0.0 **** 0.06
28216 C 6.29160707507279 73.73196636192888 87.4813916745862 C 0.0 **** -0.24
28217 H 6.372992415368458 72.69225698087727 87.79789760782272 H 0.0 **** 0.06
28218 H 7.067122536822488 73.94886508385831 86.74582254939274 H 0.0 **** 0.06
28219 H 6.415801313355615 74.3858935242542 88.34451463247726 H 0.0 **** 0.06
28220 H 5.310629942152943 73.90020785636224 87.03607732239693 H 0.0 **** 0.06
28221 C 34.57283554610906 84.56027246245162 45.006187097327086 C 0.0 **** -0.24
28222 H 35.375676865500026 85.28619420194087 44.876176952030036 H 0.0 **** 0.06
28223 H 33.65525563843555 84.95052380015306 44.56493635774629 H 0.0 **** 0.06
28224 H 34.41669262969722 84.37961898954467 46.06973300541962 H 0.0 **** 0.06
28225 H 34.84422988617912 83.62685306726934 44.514473266957395 H 0.0 **** 0.06
28226 C 172.57124145727988 95.78182373512306 111.04057323054641 C 0.0 **** -0.24
28227 H 172.46962608571323 96.02006980633104 112.09975750853349 H 0.0 **** 0.06
28228 H 171.82070494589746 95.04127421933828 110.76145929816872 H 0.0 **** 0.06
28229 H 173.56650499938183 95.37866628315436 110.85334679884309 H 0.0 **** 0.06
28230 H 172.4278076034057 96.68572368229599 110.44929768116344 H 0.0 **** 0.06
28231 C 52.47611847291144 7.4656732061428315 46.54019994121923 C 0.0 **** -0.24
28232 H 52.28547237220462 8.530955831803695 46.666600693469036 H 0.0 **** 0.06
28233 H 51.77620928966448 7.055366333473501 45.8126708529454 H 0.0 **** 0.06
28234 H 52.346621366867694 6.957458836199365 47.49602307025421 H 0.0 **** 0.06
28235 H 53.49638303718949 7.318279375649617 46.18625014501079 H 0.0 **** 0.06
28236 C 46.339397713111794 139.2890300633436 144.40655009898006 C 0.0 **** -0.24
28237 H 45.885214011738356 138.5772371984909 143.71698771814172 H 0.0 **** 0.06
28238 H 46.71253007283889 138.75844034039665 145.28213787506232 H 0.0 **** 0.06
28239 H 45.593255862935905 140.0206408414374 144.71594658053425 H 0.0 **** 0.06
28240 H 47.165129853133976 139.79859928912975 143.91048074146266 H 0.0 **** 0.06
28241 C 77.0845531015321 142.7580565109194 26.629531079853223 C 0.0 **** -0.24
28242 H 76.38775885829018 141.94253001417053 26.43764183616861 H 0.0 **** 0.06
28243 H 77.14687271038541 143.39796866547542 25.74841761874646 H 0.0 **** 0.06
28244 H 78.07059890398584 142.34912069067934 26.850997484184006 H 0.0 **** 0.06
28245 H 76.734030274075 143.34232524661965 27.480160828148797 H 0.0 **** 0.06
28246 C 142.04507625354393 94.64209909295309 133.53681245234367 C 0.0 **** -0.24
28247 H 142.43142288037183 93.6441874830548 133.32739442212144 H 0.0 **** 0.06
28248 H 141.30944689542793 94.91279017139354 132.77906184249198 H 0.0 **** 0.06
28249 H 142.86513156767734 95.35908147197165 133.5204509366371 H 0.0 **** 0.06
28250 H 141.57380539854057 94.6499597684718 134.5200271783517 H 0.0 **** 0.06
28251 C 59.91142647311972 52.12115436561716 120.62509743362435 C 0.0 **** -0.24
28252 H 60.70408271681288 52.000373324683295 121.36357912503252 H 0.0 **** 0.06
28253 H 59.778445979148046 53.17995347359842 120.40508198992069 H 0.0 **** 0.06
28254 H 58.98221359179786 51.71087674198753 121.02028203995332 H 0.0 **** 0.06
28255 H 60.183356490577694 51.59063014351338 119.7121711929683 H 0.0 **** 0.06
28256 C 35.749794654744335 57.61769382869751 136.0085053064116 C 0.0 **** -0.24
28257 H 35.353877352069446 57.67762569043063 134.9949472994116 H 0.0 **** 0.06
28258 H 36.78011293118203 57.26374905545154 135.974600610734 H 0.0 **** 0.06
28259 H 35.145224966983164 56.924453999515976 136.5932182388322 H 0.0 **** 0.06
28260 H 35.71883635351077 58.60582064732493 136.46926359681024 H 0.0 **** 0.06
28261 C 139.45455820256132 26.255960093364706 95.61457637313111 C 0.0 **** -0.24
28262 H 139.53599430599394 27.199414686702482 96.15403236445337 H 0.0 **** 0.06
28263 H 139.95348146175633 26.345177226464898 94.64953799468793 H 0.0 **** 0.06
28264 H 138.4027189029523 26.0171692233464 95.45826519206133 H 0.0 **** 0.06
28265 H 139.92423287538787 25.46321814445406 96.19580357004577 H 0.0 **** 0.06
28266 C 88.90190157474518 104.1138517121816 128.06375166971856 C 0.0 **** -0.24
28267 H 89.84248897483673 104.14223152033131 127.51417901884244 H 0.0 **** 0.06
28268 H 88.87087464486729 104.94130203580647 128.77351114495062 H 0.0 **** 0.06
28269 H 88.82433696698229 103.1699023598002 128.60226583619817 H 0.0 **** 0.06
28270 H 88.07001310283533 104.20295280805558 127.36520693560416 H 0.0 **** 0.06
28271 C 142.36008194998172 23.675645721542963 86.65282906505854 C 0.0 **** -0.24
28272 H 143.15614117141072 23.532759316170115 87.38456154133986 H 0.0 **** 0.06
28273 H 142.79184958209794 23.997112799049944 85.704369867466 H 0.0 **** 0.06
28274 H 141.6674506814264 24.43484862955441 87.0138083008586 H 0.0 **** 0.06
28275 H 141.82731637051342 22.73533893084266 86.50989141661125 H 0.0 **** 0.06
28276 C 2.8886692746552853 115.50824402164167 90.8320134058024 C 0.0 **** -0.24
28277 H 3.389550847055716 114.89990750812359 91.5850595663141 H 0.0 **** 0.06
28278 H 3.580921496350811 116.26226563181487 90.4567462056545 H 0.0 **** 0.06
28279 H 2.023337013111643 115.99950701058151 91.27773524454523 H 0.0 **** 0.06
28280 H 2.5623103852424265 114.87277645454407 90.00936524109005 H 0.0 **** 0.06
28281 C 1.834945621439509 141.0342624044115 3.3631960008272443 C 0.0 **** -0.24
28282 H 2.510193236313903 141.8898273581551 3.3946519533518256 H 0.0 **** 0.06
28283 H 0.8497437717819807 141.36109706478933 3.0322842710140065 H 0.0 **** 0.06
28284 H 1.7584620507303867 140.59607059128282 4.35877443042132 H 0.0 **** 0.06
28285 H 2.2244889231741993 140.28997567336376 2.6676649078623953 H 0.0 **** 0.06
28286 C 170.7664192780888 18.91602913822831 124.80990584676627 C 0.0 **** -0.24
28287 H 170.21428952466292 19.336960004745322 125.65040815871782 H 0.0 **** 0.06
28288 H 171.75491103431057 18.60131283567685 125.14605300392833 H 0.0 **** 0.06
28289 H 170.8708035464427 19.669804385703287 124.029334906273 H 0.0 **** 0.06
28290 H 170.22567300693885 18.056039326787754 124.41382731814593 H 0.0 **** 0.06
28291 C 87.7083207504145 118.4457817631723 133.62050627288357 C 0.0 **** -0.24
28292 H 88.07807114141573 118.45453095643433 134.6459073109211 H 0.0 **** 0.06
28293 H 86.61874759256986 118.48907077961707 133.6267197375263 H 0.0 **** 0.06
28294 H 88.03211051196199 117.53037345601336 133.12556688524782 H 0.0 **** 0.06
28295 H 88.10387467493632 119.30854356064265 133.0850145887023 H 0.0 **** 0.06
28296 C 8.531919822815773 80.29716313530574 79.61496477217025 C 0.0 **** -0.24
28297 H 9.358689087135154 80.91668322730712 79.9631064629323 H 0.0 **** 0.06
28298 H 8.894565996659978 79.28955047078108 79.4117416049364 H 0.0 **** 0.06
28299 H 8.117085382415148 80.72445410401014 78.70156068610964 H 0.0 **** 0.06
28300 H 7.758980186097297 80.25874038271763 80.38214478861087 H 0.0 **** 0.06
28301 C 80.80811721161683 104.77600175200547 19.094808591428603 C 0.0 **** -0.24
28302 H 81.08867272675968 104.58302468546012 18.058967067574542 H 0.0 **** 0.06
28303 H 79.82283637180774 104.35237390847959 19.28963236950034 H 0.0 **** 0.06
28304 H 80.78267274688682 105.851507310268 19.269690133991958 H 0.0 **** 0.06
28305 H 81.53954106028624 104.31753644480108 19.76045707605283 H 0.0 **** 0.06
28306 C 95.3173813319817 158.80045154099804 28.812319956050146 C 0.0 **** -0.24
28307 H 94.58290708707688 158.70491138082184 29.611859097769596 H 0.0 **** 0.06
28308 H 96.17433252079175 159.36930990254768 29.173601038190526 H 0.0 **** 0.06
28309 H 94.86669918199951 159.3193223006005 27.966124395014603 H 0.0 **** 0.06
28310 H 95.64406598791811 157.80872865288637 28.49926718476644 H 0.0 **** 0.06
28311 C 164.6762828817574 146.7081184201438 155.31321608839133 C 0.0 **** -0.24
28312 H 164.48912143760265 147.49580701084975 154.5839181779853 H 0.0 **** 0.06
28313 H 165.59138611154606 146.17837055731403 155.0485720536252 H 0.0 **** 0.06
28314 H 163.83927188037046 146.00979609787342 155.31678078081723 H 0.0 **** 0.06
28315 H 164.7858951729242 147.14978913199758 156.30380143038332 H 0.0 **** 0.06
28316 C 108.11209592588284 122.4982792627888 3.715272192646438 C 0.0 **** -0.24
28317 H 108.38290714766026 121.44361132451792 3.7728485039326074 H 0.0 **** 0.06
28318 H 108.87543217322448 123.0966413710882 4.214179787777937 H 0.0 **** 0.06
28319 H 107.15150284175621 122.65304950243609 4.205552985433769 H 0.0 **** 0.06
28320 H 108.04106236333439 122.79850126953892 2.670487465053071 H 0.0 **** 0.06
28321 C 136.23061510129892 73.48494804607422 42.955399536938614 C 0.0 **** -0.24
28322 H 135.9501727830607 72.46856786430176 42.67740377948688 H 0.0 **** 0.06
28323 H 137.16634658987266 73.74976335068455 42.46310529569277 H 0.0 **** 0.06
28324 H 136.35955960866545 73.54289987991437 44.03715512025087 H 0.0 **** 0.06
28325 H 135.44768780994454 74.17663825388169 42.645545250481064 H 0.0 **** 0.06
28326 C 18.75979030659613 52.41947053531091 140.63123703658263 C 0.0 **** -0.24
28327 H 18.437930943970144 53.307730271682175 140.08690588866637 H 0.0 **** 0.06
28328 H 19.273547302998907 51.74187469785892 139.94806731957425 H 0.0 **** 0.06
28329 H 17.890259624899727 51.9180755831498 141.05529087538235 H 0.0 **** 0.06
28330 H 19.438646932654535 52.710244355703836 141.43256246069484 H 0.0 **** 0.06
28331 C 126.49498333319912 141.01549667395236 143.23238958932677 C 0.0 **** -0.24
28332 H 127.38867316680322 141.60938554602927 143.42438093800857 H 0.0 **** 0.06
28333 H 126.5286063928751 140.6289914692164 142.21367451285673 H 0.0 **** 0.06
28334 H 125.61082487701816 141.63987221644314 143.35628938203587 H 0.0 **** 0.06
28335 H 126.4540311014008 140.18358951048066 143.93557205082473 H 0.0 **** 0.06
28336 C 144.33801408471166 155.21950776562127 154.61284078514578 C 0.0 **** -0.24
28337 H 145.1113732937908 155.4637227693804 155.34046756072308 H 0.0 **** 0.06
28338 H 144.6077912073037 154.30263565698377 154.08949863728878 H 0.0 **** 0.06
28339 H 144.24570948505558 156.0350544480444 153.8943307262693 H 0.0 **** 0.06
28340 H 143.3867674735471 155.07985030595654 155.12644848128494 H 0.0 **** 0.06
28341 C 140.65358456827272 123.74565757399938 146.39452633489734 C 0.0 **** -0.24
28342 H 139.74257173604224 123.15697491556449 146.29476418842768 H 0.0 **** 0.06
28343 H 140.49937331707474 124.73154075062385 145.95602498364303 H 0.0 **** 0.06
28344 H 141.46987704041038 123.24165510415537 145.8773626401387 H 0.0 **** 0.06
28345 H 140.90384115779142 123.85219961461007 147.4503741635752 H 0.0 **** 0.06
28346 C 128.67218061769856 169.877018068138 55.27321164021896 C 0.0 **** -0.24
28347 H 128.47594051650015 169.2121736203557 54.43302902829333 H 0.0 **** 0.06
28348 H 129.16926152182654 169.32117518851032 56.0677054600294 H 0.0 **** 0.06
28349 H 127.7302997208466 170.28063817067812 55.646082128895785 H 0.0 **** 0.06
28350 H 129.3140777031833 170.69611274447374 54.94642382901543 H 0.0 **** 0.06
28351 C 44.49975519071239 135.19661358375632 93.04834798798032 C 0.0 **** -0.24
28352 H 43.64351505676285 134.76586705040407 93.56709497183579 H 0.0 **** 0.06
28353 H 45.305475346071105 134.46398715125898 93.00558448750053 H 0.0 **** 0.06
28354 H 44.84161584585911 136.08205135837792 93.58539403614168 H 0.0 **** 0.06
28355 H 44.20839441370043 135.4761732832922 92.0359189999678 H 0.0 **** 0.06
28356 C 140.1944499520499 51.17872425248615 76.75822060844399 C 0.0 **** -0.24
28357 H 139.5745813556889 51.413487108083615 75.89315731697907 H 0.0 **** 0.06
28358 H 140.19555170417834 50.10092483695965 76.92259337667775 H 0.0 **** 0.06
28359 H 139.79298308115278 51.68025974496999 77.63851185176408 H 0.0 **** 0.06
28360 H 141.21336003534216 51.52063390032703 76.5789046982618 H 0.0 **** 0.06
28361 C 69.21821659049893 35.20716000645035 96.68902060432708 C 0.0 **** -0.24
28362 H 69.50799016292 34.187534150544494 96.43618753740807 H 0.0 **** 0.06
28363 H 68.57521652567469 35.193778206547094 97.56877910251822 H 0.0 **** 0.06
28364 H 68.68022191535552 35.65076340330141 95.85141632277279 H 0.0 **** 0.06
28365 H 70.11073374818083 35.79635135551665 96.90022398755494 H 0.0 **** 0.06
28366 C 53.99600011435777 162.77488668996207 74.94264663003213 C 0.0 **** -0.24
28367 H 54.323513489446 161.9384736839443 74.3255320168675 H 0.0 **** 0.06
28368 H 53.339035705107094 162.4081889849498 75.73138850503892 H 0.0 **** 0.06
28369 H 53.45682182161451 163.49189425016633 74.32483997139866 H 0.0 **** 0.06
28370 H 54.865070678455666 163.2591306639701 75.38823536361309 H 0.0 **** 0.06
28371 C 129.55255726594436 53.40380135760441 111.55539952079411 C 0.0 **** -0.24
28372 H 128.9985310268629 53.355995678723644 112.4921586630856 H 0.0 **** 0.06
28373 H 130.41040382785494 54.06595099128586 111.6743126592026 H 0.0 **** 0.06
28374 H 128.90279910914134 53.78832992130856 110.76945849465429 H 0.0 **** 0.06
28375 H 129.8978842284234 52.40563237601715 111.28603144629159 H 0.0 **** 0.06
28376 C 104.78554385818114 11.886344609030346 138.8948275333489 C 0.0 **** -0.24
28377 H 104.72418103411252 11.784244722888218 139.97861968198228 H 0.0 **** 0.06
28378 H 105.63175527342761 11.308345698918401 138.5221806343634 H 0.0 **** 0.06
28379 H 104.9201122685242 12.936100946609258 138.63647675540037 H 0.0 **** 0.06
28380 H 103.86473350635853 11.51539149628718 138.44320788474138 H 0.0 **** 0.06
28381 C 132.7425835262739 40.867554113887365 83.15063174382676 C 0.0 **** -0.24
28382 H 132.5456995907106 41.359916345250554 82.19786348356168 H 0.0 **** 0.06
28383 H 133.7050270994988 41.2000632228696 83.53908539118741 H 0.0 **** 0.06
28384 H 132.76180391729525 39.787233056986935 83.00366167054858 H 0.0 **** 0.06
28385 H 131.95555367299625 41.12370341439885 83.85980712896436 H 0.0 **** 0.06
28386 C 114.44694411290459 135.45191971362985 28.586161416890093 C 0.0 **** -0.24
28387 H 114.75813092951398 136.47993272553566 28.396397771812303 H 0.0 **** 0.06
28388 H 115.07915486524615 134.7704667101524 28.018492936349617 H 0.0 **** 0.06
28389 H 113.40806497295631 135.32477477992572 28.279806203813564 H 0.0 **** 0.06
28390 H 114.54090551990288 135.23545048793918 29.65005544269303 H 0.0 **** 0.06
28391 C 69.22027608870957 106.61570934798942 161.35375776244732 C 0.0 **** -0.24
28392 H 68.32904809967914 106.92415954134356 160.80700979303063 H 0.0 **** 0.06
28393 H 69.57966779136996 107.4473816817187 161.96076431248215 H 0.0 **** 0.06
28394 H 69.99584502454326 106.32022768985041 160.6464207638866 H 0.0 **** 0.06
28395 H 68.97647279525358 105.77180784901515 161.99963268658553 H 0.0 **** 0.06
28396 C 167.27301237329817 113.00989760725335 14.454816369244611 C 0.0 **** -0.24
28397 H 167.85687395584182 112.43467132768453 13.734954842845383 H 0.0 **** 0.06
28398 H 166.25985374534784 112.60992360986103 14.503453818855746 H 0.0 **** 0.06
28399 H 167.2379761249116 114.05349708781989 14.141154469292417 H 0.0 **** 0.06
28400 H 167.73933542658833 112.94077757475401 15.437575960733597 H 0.0 **** 0.06
28401 C 28.82076149578512 78.90574339748446 34.600259479856305 C 0.0 **** -0.24
28402 H 29.073841365900336 78.20575162033913 33.804890234961704 H 0.0 **** 0.06
28403 H 29.317196853502878 78.6023445446366 35.52248465937325 H 0.0 **** 0.06
28404 H 27.741641996366496 78.90745896733961 34.752099305269724 H 0.0 **** 0.06
28405 H 29.150013604150104 79.90604940787443 34.32160542974704 H 0.0 **** 0.06
28406 C 78.67840336287179 57.048878280458396 10.969708274719018 C 0.0 **** -0.24
28407 H 78.21753100627132 56.08627449545398 10.74812802025874 H 0.0 **** 0.06
28408 H 79.75691590356327 56.97720506482963 10.826181769296433 H 0.0 **** 0.06
28409 H 78.46620636657113 57.324261749683984 12.003268912916866 H 0.0 **** 0.06
28410 H 78.27180055753152 57.808564529297456 10.301418536818439 H 0.0 **** 0.06
28411 C 154.5201150461608 88.16421655458468 2.065671347047811 C 0.0 **** -0.24
28412 H 155.40112227466955 87.66387514003563 1.6646989107833008 H 0.0 **** 0.06
28413 H 154.25753725003602 87.72215161755244 3.026194978163687 H 0.0 **** 0.06
28414 H 153.68806735430184 88.0462589586336 1.3717485710155586 H 0.0 **** 0.06
28415 H 154.73453737789492 89.2245303715844 2.1994504903299514 H 0.0 **** 0.06
28416 C 94.16983098982922 10.016394730653076 167.3750395175992 C 0.0 **** -0.24
28417 H 94.55002028057135 10.54413823468471 166.50040411896308 H 0.0 **** 0.06
28418 H 94.0555717556619 8.958689046220172 167.13892581192763 H 0.0 **** 0.06
28419 H 93.20400210242502 10.433508463651066 167.65844708953853 H 0.0 **** 0.06
28420 H 94.87181908989334 10.130928011638787 168.2014885740191 H 0.0 **** 0.06
28421 C 120.56589258615097 112.43147789422207 25.53468613301993 C 0.0 **** -0.24
28422 H 120.02185166803139 112.0390976288439 24.67577264503865 H 0.0 **** 0.06
28423 H 120.06471437992082 113.32603054645497 25.90459848320495 H 0.0 **** 0.06
28424 H 121.58390227038936 112.68176156902041 25.236691936583952 H 0.0 **** 0.06
28425 H 120.59306897177203 111.67776448652509 26.322328030621406 H 0.0 **** 0.06
28426 C 161.8886055895839 79.10475035100598 170.79898502469888 C 0.0 **** -0.24
28427 H 162.6537422092896 78.55257375508926 170.25267452298928 H 0.0 **** 0.06
28428 H 160.97386264164962 79.139507446112 170.2069035435552 H 0.0 **** 0.06
28429 H 162.23879303697683 80.11900963954122 170.9883682542998 H 0.0 **** 0.06
28430 H 161.6897123198995 78.60644488052083 171.74793829968434 H 0.0 **** 0.06
28431 C 86.41966246507266 78.90488860212473 128.42544802650423 C 0.0 **** -0.24
28432 H 85.82266417573692 78.30948150978887 127.73572229764977 H 0.0 **** 0.06
28433 H 86.84789732387911 78.25584505950425 129.18911782622777 H 0.0 **** 0.06
28434 H 85.78637906471448 79.6550175844462 128.8998917537045 H 0.0 **** 0.06
28435 H 87.22079943453123 79.40067649245795 127.8772098378841 H 0.0 **** 0.06
28436 C 2.506211385229051 28.388207751169674 145.1167985732055 C 0.0 **** -0.24
28437 H 2.5698416198716245 29.469084411054496 145.23639365545176 H 0.0 **** 0.06
28438 H 2.8945010508783753 27.899922110553675 146.01103706193973 H 0.0 **** 0.06
28439 H 3.093901221839303 28.083006451432496 144.25092732873108 H 0.0 **** 0.06
28440 H 1.4653313304206108 28.100214384155834 144.96868806438596 H 0.0 **** 0.06
28441 C 145.99780135906508 116.86446314254647 163.96176365449452 C 0.0 **** -0.24
28442 H 146.76900049519878 117.61468350446157 163.7865366843659 H 0.0 **** 0.06
28443 H 146.44629566697418 115.87061519695533 163.94143300958433 H 0.0 **** 0.06
28444 H 145.238328355196 116.93728199862406 163.18381999770014 H 0.0 **** 0.06
28445 H 145.53811657325394 117.03691896302837 164.93528052224326 H 0.0 **** 0.06
28446 C 159.80304714474852 28.20925549391302 115.85835181895268 C 0.0 **** -0.24
28447 H 160.17498434503239 27.467869463091404 116.56545906276904 H 0.0 **** 0.06
28448 H 160.61292165047033 28.88355096643798 115.57967801447913 H 0.0 **** 0.06
28449 H 158.99763073424435 28.78054787765393 116.32081979252803 H 0.0 **** 0.06
28450 H 159.42665184924707 27.70505366846868 114.96745040603463 H 0.0 **** 0.06
28451 C 22.3975703753988 126.77629519856615 136.3731372137609 C 0.0 **** -0.24
28452 H 21.51139276518353 126.70197513397943 135.7422798795888 H 0.0 **** 0.06
28453 H 22.710019388936786 127.8190860927578 136.4392733347807 H 0.0 **** 0.06
28454 H 23.202824702191265 126.18232423730237 135.93996268428464 H 0.0 **** 0.06
28455 H 22.165839311939862 126.40168929117249 137.36963773246447 H 0.0 **** 0.06
28456 C 157.73237098097036 139.03383692509436 157.24296682882922 C 0.0 **** -0.24
28457 H 158.3706180134474 139.8290681264591 157.62687595869488 H 0.0 **** 0.06
28458 H 157.47261487777567 138.3524310496152 158.05414500412147 H 0.0 **** 0.06
28459 H 158.26197432422185 138.48647515026158 156.46345508376524 H 0.0 **** 0.06
28460 H 156.82231957583667 139.46706453814951 156.82766396656424 H 0.0 **** 0.06
28461 C 102.85210456521463 23.717391885848087 55.492808870699776 C 0.0 **** -0.24
28462 H 102.17789400051058 24.46030274571652 55.06734707833965 H 0.0 **** 0.06
28463 H 103.23905562578702 23.080086398303678 54.6977631021647 H 0.0 **** 0.06
28464 H 102.31043998793601 23.108489934330862 56.21632187754207 H 0.0 **** 0.06
28465 H 103.68047337138225 24.221399476775588 55.99023488697628 H 0.0 **** 0.06
28466 C 124.01497577179634 157.68154060467285 164.20790238571925 C 0.0 **** -0.24
28467 H 123.33425257548416 158.47079178516242 163.88819361098118 H 0.0 **** 0.06
28468 H 123.8699925424969 156.8016783826476 163.5806540035789 H 0.0 **** 0.06
28469 H 123.81033267925707 157.42566666229172 165.24744070255426 H 0.0 **** 0.06
28470 H 125.04342462173327 158.02985145990968 164.11388808039297 H 0.0 **** 0.06
28471 C 46.30128917961741 108.24335502195939 143.8062144519389 C 0.0 **** -0.24
28472 H 46.5314091061382 108.59124043907576 142.79959897555284 H 0.0 **** 0.06
28473 H 46.0510697652511 107.18207780503423 143.77632889884822 H 0.0 **** 0.06
28474 H 45.45380491286937 108.80541170646524 144.19965302297973 H 0.0 **** 0.06
28475 H 47.16737668918441 108.39437640018673 144.4500910993351 H 0.0 **** 0.06
28476 C 137.50906209273248 42.00359367065525 124.1650009457905 C 0.0 **** -0.24
28477 H 138.06236346755153 42.819119066312794 124.6320203640152 H 0.0 **** 0.06
28478 H 136.79519411118275 41.593724545996366 124.87934118995616 H 0.0 **** 0.06
28479 H 138.20393636021782 41.22350914449669 123.85594911238564 H 0.0 **** 0.06
28480 H 136.97467501992983 42.38078787412729 123.29385220051512 H 0.0 **** 0.06
28481 C 130.4080815918917 138.06508844290406 18.026778114420708 C 0.0 **** -0.24
28482 H 129.74380388096628 138.9227221848315 18.136239027440915 H 0.0 **** 0.06
28483 H 130.57802841779596 137.6102715016554 19.003347542759705 H 0.0 **** 0.06
28484 H 131.35949596530295 138.39395218893065 17.608781092291437 H 0.0 **** 0.06
28485 H 129.9505317770812 137.33453502436265 17.35997451286842 H 0.0 **** 0.06
28486 C 119.25468220822214 57.42562296695024 124.63509645167375 C 0.0 **** -0.24
28487 H 118.95942612217331 56.41089957494222 124.36727845501653 H 0.0 **** 0.06
28488 H 120.33805600183072 57.518814055727546 124.56501216838822 H 0.0 **** 0.06
28489 H 118.93543993198787 57.638836609999544 125.65518247367137 H 0.0 **** 0.06
28490 H 118.78325180529657 58.132180367950355 123.9517420715573 H 0.0 **** 0.06
28491 C 164.00299694296658 48.306982556671585 69.84660507753173 C 0.0 **** -0.24
28492 H 162.93733703709492 48.53502128336504 69.85574172761102 H 0.0 **** 0.06
28493 H 164.15308653843 47.29180194701297 69.47720601251778 H 0.0 **** 0.06
28494 H 164.40004651435348 48.38859335600374 70.85817340725353 H 0.0 **** 0.06
28495 H 164.51938686520515 49.01136843294279 69.1949140815479 H 0.0 **** 0.06
28496 C 110.67652688038899 99.6836643017333 98.14821163814344 C 0.0 **** -0.24
28497 H 110.83890840498174 99.50663814892724 99.21153340218399 H 0.0 **** 0.06
28498 H 111.1633630328592 98.89737833290746 97.57107549513955 H 0.0 **** 0.06
28499 H 111.0981268483319 100.65058057220216 97.87362908767537 H 0.0 **** 0.06
28500 H 109.60713311777906 99.68061637490356 97.93824053438237 H 0.0 **** 0.06
28501 C 161.76228141263937 98.95264115746346 53.88946864812493 C 0.0 **** -0.24
28502 H 161.47623861388854 99.7726097987478 53.23108113549847 H 0.0 **** 0.06
28503 H 162.21345120588865 98.15428021032488 53.30124099792127 H 0.0 **** 0.06
28504 H 160.8784555116835 98.57238744218563 54.40126749729498 H 0.0 **** 0.06
28505 H 162.4810847942856 99.312914437666 54.62581507698067 H 0.0 **** 0.06
28506 C 1.2570871557301189 104.06180723001097 164.081518365119 C 0.0 **** -0.24
28507 H 1.8420927165440446 103.52359202840483 164.82767323577622 H 0.0 **** 0.06
28508 H 0.23001926977966036 103.69763398943559 164.094031590096 H 0.0 **** 0.06
28509 H 1.6894161498852327 103.89837146646687 163.0941797266907 H 0.0 **** 0.06
28510 H 1.2680927873159362 105.12734905923628 164.3107380623067 H 0.0 **** 0.06
28511 C 93.4249312439037 166.0895869760937 53.40072662007559 C 0.0 **** -0.24
28512 H 92.63398182409082 166.76545888414162 53.72489840656087 H 0.0 **** 0.06
28513 H 92.98648911717692 165.14207463524906 53.08719343779646 H 0.0 **** 0.06
28514 H 94.11400771751232 165.9149426828844 54.22792623977418 H 0.0 **** 0.06
28515 H 93.96421753800792 166.53516389162948 52.565426277554636 H 0.0 **** 0.06
28516 C 74.94998727761464 99.92393373722129 13.618881319829875 C 0.0 **** -0.24
28517 H 75.29184528061842 99.12480556610032 12.96199059412487 H 0.0 **** 0.06
28518 H 74.75588276598944 99.5191421170737 14.612206730435062 H 0.0 **** 0.06
28519 H 74.0344880389909 100.35743949516637 13.217648148662917 H 0.0 **** 0.06
28520 H 75.71912137831396 100.69376575610485 13.684536437682212 H 0.0 **** 0.06
28521 C 163.68596823512937 54.643793058808185 23.906941482796583 C 0.0 **** -0.24
28522 H 163.68480023244294 54.78649683538433 24.987969455445892 H 0.0 **** 0.06
28523 H 164.54294612609607 55.15822091620831 23.47313964484931 H 0.0 **** 0.06
28524 H 162.76546911583318 55.05066987388085 23.486623919828105 H 0.0 **** 0.06
28525 H 163.74892621997964 53.57897396049293 23.681564512209405 H 0.0 **** 0.06
28526 C 9.512383498870463 58.484767899056806 29.53074615702866 C 0.0 **** -0.24
28527 H 10.244619774894943 57.68144384932501 29.456485388000374 H 0.0 **** 0.06
28528 H 9.952176851459399 59.32895463882309 30.06444908826353 H 0.0 **** 0.06
28529 H 8.635852434579988 58.129766074247954 30.07277861321964 H 0.0 **** 0.06
28530 H 9.217392199232847 58.80118896534742 28.53000341203962 H 0.0 **** 0.06
28531 C 101.4313044547228 123.58528845761577 130.34728275165372 C 0.0 **** -0.24
28532 H 101.78130397113898 123.3436056441083 131.3512578324167 H 0.0 **** 0.06
28533 H 100.36005938300588 123.78317133863976 130.37484231333494 H 0.0 **** 0.06
28534 H 101.63004849251087 122.74570983336795 129.68202213028374 H 0.0 **** 0.06
28535 H 101.95556251750656 124.46956749430788 129.98367406204142 H 0.0 **** 0.06
28536 C 87.76902974869606 164.0271252587073 48.973105444787905 C 0.0 **** -0.24
28537 H 86.88209245394091 164.60021299546537 48.70472169221017 H 0.0 **** 0.06
28538 H 87.50345892514169 163.2743624729873 49.71515699504937 H 0.0 **** 0.06
28539 H 88.52289716866122 164.6961554465915 49.3878881612971 H 0.0 **** 0.06
28540 H 88.16767044704035 163.537770119785 48.084654930594695 H 0.0 **** 0.06
28541 C 48.62443572142311 80.16776611053024 80.79934635069532 C 0.0 **** -0.24
28542 H 48.63174561477162 79.28003103259758 81.43121750997847 H 0.0 **** 0.06
28543 H 49.632709737474 80.57892303556812 80.73875170502447 H 0.0 **** 0.06
28544 H 47.95342242395844 80.91245692170261 81.22837077571319 H 0.0 **** 0.06
28545 H 48.27991842765175 79.90073604701904 79.80039642262807 H 0.0 **** 0.06
28546 C 99.22143933003872 71.37014649421273 85.1555301711486 C 0.0 **** -0.24
28547 H 98.95611270736975 70.33374098497058 85.3620381927177 H 0.0 **** 0.06
28548 H 98.46685685271041 71.81675951626173 84.50812822857893 H 0.0 **** 0.06
28549 H 100.19151425398178 71.40521992158774 84.65990261278313 H 0.0 **** 0.06
28550 H 99.27279743947173 71.92558477485298 86.09245219047875 H 0.0 **** 0.06
28551 C 40.10427800012772 109.43832499499564 107.25414519062832 C 0.0 **** -0.24
28552 H 39.04113165370495 109.58698318682426 107.44083945635504 H 0.0 **** 0.06
28553 H 40.582043052767176 110.40326488388615 107.08581593241803 H 0.0 **** 0.06
28554 H 40.23423843764033 108.80952204962227 106.37290552576906 H 0.0 **** 0.06
28555 H 40.56042466618064 108.95293187928667 108.1166797780117 H 0.0 **** 0.06
28556 C 18.878681426140624 125.61086585282314 80.6359062016055 C 0.0 **** -0.24
28557 H 19.397042496325582 126.56693159697176 80.70801219857421 H 0.0 **** 0.06
28558 H 17.90516236863978 125.68732800145224 81.12185004086027 H 0.0 **** 0.06
28559 H 19.470531713510496 124.8395715472576 81.12887325855219 H 0.0 **** 0.06
28560 H 18.74260744153296 125.34927217983224 79.58700783714643 H 0.0 **** 0.06
28561 C 122.95861035478367 31.99990015518152 132.97083607562607 C 0.0 **** -0.24
28562 H 123.8470000530425 32.48332959269585 133.3799216035124 H 0.0 **** 0.06
28563 H 122.71234087744426 32.44911871319556 132.0086577032143 H 0.0 **** 0.06
28564 H 122.12438175053126 32.13192701620278 133.65937271999826 H 0.0 **** 0.06
28565 H 123.15386752885604 30.93619411184534 132.83685749963607 H 0.0 **** 0.06
28566 C 10.60963283326199 170.17432391151874 171.21052836041935 C 0.0 **** -0.24
28567 H 10.310452617602358 171.01672908655146 170.58623121402843 H 0.0 **** 0.06
28568 H 11.575119652659595 169.7982522747165 170.87366120283502 H 0.0 **** 0.06
28569 H 9.863997871371609 169.38285481896287 171.13352595560758 H 0.0 **** 0.06
28570 H 10.687487162546887 170.50080811520485 172.24769081651954 H 0.0 **** 0.06
28571 C 136.9918342320605 89.5918458752671 100.9750028561312 C 0.0 **** -0.24
28572 H 137.42614036237117 88.67745044968552 101.38061154462008 H 0.0 **** 0.06
28573 H 136.82954638081856 89.47250321079736 99.90405974375597 H 0.0 **** 0.06
28574 H 137.67172596431837 90.4251186975576 101.14970486967695 H 0.0 **** 0.06
28575 H 136.0403289910674 89.79022523103629 101.46818191905732 H 0.0 **** 0.06
28576 C 153.45077053358986 172.43649493067784 49.38562384811024 C 0.0 **** -0.24
28577 H 153.0579531245948 173.42893099698603 49.16542550143734 H 0.0 **** 0.06
28578 H 154.13066616610843 172.49641887868108 50.23695122598423 H 0.0 **** 0.06
28579 H 153.98900549765568 172.0581431049206 48.51666631190875 H 0.0 **** 0.06
28580 H 152.62752114504593 171.76451700504367 49.62472477021768 H 0.0 **** 0.06
28581 C 130.04312817091414 154.81587516947556 132.23088246868156 C 0.0 **** -0.24
28582 H 130.93940032939145 154.19551430391058 132.24067039361623 H 0.0 **** 0.06
28583 H 129.26281276063196 154.33590552373718 132.82309546844144 H 0.0 **** 0.06
28584 H 129.69757571843877 154.93897891214772 131.2052026387022 H 0.0 **** 0.06
28585 H 130.27398676559494 155.7925733389028 132.65703643238433 H 0.0 **** 0.06
28586 C 155.41777181656016 77.18621417383592 155.23317248438735 C 0.0 **** -0.24
28587 H 155.97544977405278 76.306075646444 154.9130043178771 H 0.0 **** 0.06
28588 H 155.9819481453359 77.71423152214392 156.00212888303298 H 0.0 **** 0.06
28589 H 154.45357520416513 76.8780503251396 155.63646282289966 H 0.0 **** 0.06
28590 H 155.2603520489905 77.84628526547856 154.37971634784884 H 0.0 **** 0.06
28591 C 138.87605425592125 139.48096962649564 170.19946012707155 C 0.0 **** -0.24
28592 H 138.22062395314506 139.4290993046284 169.32962060439382 H 0.0 **** 0.06
28593 H 139.9151315133757 139.46947614341906 169.8723049608892 H 0.0 **** 0.06
28594 H 138.6880194260179 138.62479960558824 170.8470664689207 H 0.0 **** 0.06
28595 H 138.67726029640042 140.4018510784119 170.7474131264994 H 0.0 **** 0.06
28596 C 126.49428372924746 113.24434347751281 159.8815863155622 C 0.0 **** -0.24
28597 H 125.44731674835322 113.45929608778559 160.09450341074586 H 0.0 **** 0.06
28598 H 126.69375572189182 112.18889048559393 160.06531457936936 H 0.0 **** 0.06
28599 H 127.12827139233823 113.85214915214053 160.52742305988076 H 0.0 **** 0.06
28600 H 126.70839926881402 113.47831379242027 158.83915857779087 H 0.0 **** 0.06
28601 C 3.3069590621679694 3.9993376115062347 67.9238501572664 C 0.0 **** -0.24
28602 H 4.026414737067007 3.5877384478723684 67.21528761734078 H 0.0 **** 0.06
28603 H 3.6233941167603163 4.9980471083585485 68.22372073700153 H 0.0 **** 0.06
28604 H 3.2541860590752734 3.355586583761692 68.80266404477157 H 0.0 **** 0.06
28605 H 2.3253231961590615 4.05356987005473 67.4537894621558 H 0.0 **** 0.06
28606 C 29.14724983084335 133.024642388613 50.353278317117926 C 0.0 **** -0.24
28607 H 28.216354767137773 132.45826043297959 50.39742669486597 H 0.0 **** 0.06
28608 H 28.937963023646432 134.0413943242189 50.0211447399429 H 0.0 **** 0.06
28609 H 29.829659897388183 132.54530351576727 49.65092516581903 H 0.0 **** 0.06
28610 H 29.603302399934023 133.05083391367526 51.34304154577892 H 0.0 **** 0.06
28611 C 60.15710979389098 12.66499680128144 136.74352601925264 C 0.0 **** -0.24
28612 H 60.261821301601884 11.643608456092338 137.10974390439333 H 0.0 **** 0.06
28613 H 59.26393545653448 13.116054840369998 137.17618921632734 H 0.0 **** 0.06
28614 H 60.06871114690509 12.653155073688204 135.65659470898566 H 0.0 **** 0.06
28615 H 61.034238232969585 13.245560640209973 137.0300456982822 H 0.0 **** 0.06
28616 C 70.6732462332234 90.52761597295357 150.6086737207547 C 0.0 **** -0.24
28617 H 69.80039957034016 89.99671149216535 150.22713820004194 H 0.0 **** 0.06
28618 H 70.95132245395727 90.11801998166814 151.57982969598305 H 0.0 **** 0.06
28619 H 70.43677363641888 91.5866322619088 150.71365184017955 H 0.0 **** 0.06
28620 H 71.50311505322395 90.40790464946923 149.9124373269761 H 0.0 **** 0.06
28621 C 130.8334619834889 162.91137122677944 89.88401649068898 C 0.0 **** -0.24
28622 H 130.39319729534145 162.5561923248306 90.81590658368658 H 0.0 **** 0.06
28623 H 130.8338051809817 164.00127899189738 89.8750651038539 H 0.0 **** 0.06
28624 H 130.24982415182305 162.54021298076546 89.04186056132922 H 0.0 **** 0.06
28625 H 131.85876128180294 162.54677952959406 89.80521616251602 H 0.0 **** 0.06
28626 C 127.657562123005 5.312295458341879 154.1058740499626 C 0.0 **** -0.24
28627 H 126.93945927075816 5.402981339761681 154.9216568554251 H 0.0 **** 0.06
28628 H 128.06222272874646 4.2996527865971075 154.09013124241227 H 0.0 **** 0.06
28629 H 128.46780510208788 6.025901215465893 154.25367901767555 H 0.0 **** 0.06
28630 H 127.15917147448874 5.5191645540181185 153.1585546013594 H 0.0 **** 0.06
28631 C 80.36677413359001 100.30754369562149 20.60924554463889 C 0.0 **** -0.24
28632 H 80.72493297787065 101.0227287227784 21.348780374418794 H 0.0 **** 0.06
28633 H 79.38822345036954 100.62189830116895 20.24455120261657 H 0.0 **** 0.06
28634 H 80.28366539596766 99.32137241919509 21.06760934818685 H 0.0 **** 0.06
28635 H 81.06838881656569 100.26261226552458 19.7760605719209 H 0.0 **** 0.06
28636 C 36.286394503110955 61.60889194819839 14.93172752874736 C 0.0 **** -0.24
28637 H 37.20050757987872 61.62703330463006 15.52531944592188 H 0.0 **** 0.06
28638 H 36.10149435421363 62.60113492767823 14.519061785732688 H 0.0 **** 0.06
28639 H 35.447583799858194 61.316374474339796 15.564253693363028 H 0.0 **** 0.06
28640 H 36.395992278493395 60.89102508614542 14.118275189971996 H 0.0 **** 0.06
28641 C 55.02721627399009 127.59913923048626 141.79939798026936 C 0.0 **** -0.24
28642 H 55.15825994389614 127.70488023237073 142.87652406143803 H 0.0 **** 0.06
28643 H 54.991585504908414 128.58787737273946 141.3393951697987 H 0.0 **** 0.06
28644 H 54.09546188102833 127.07131905523124 141.59712146927149 H 0.0 **** 0.06
28645 H 55.86262548051724 127.03548506730064 141.38487101047366 H 0.0 **** 0.06
28646 C 121.6763412212643 13.724725926404744 87.11300607914158 C 0.0 **** -0.24
28647 H 121.01679202560697 14.469855209674932 86.6677472721162 H 0.0 **** 0.06
28648 H 122.32569107461694 14.205012864339182 87.84370188342477 H 0.0 **** 0.06
28649 H 122.2827855327412 13.264602201809794 86.33298900565583 H 0.0 **** 0.06
28650 H 121.07723383241452 12.958675684430943 87.60710384121883 H 0.0 **** 0.06
28651 C 44.2301587952262 126.25749935760683 62.92562575727459 C 0.0 **** -0.24
28652 H 44.91549133110047 126.85472685921115 62.32400642801761 H 0.0 **** 0.06
28653 H 44.5526129704038 125.21675309668075 62.917521131779125 H 0.0 **** 0.06
28654 H 43.224924464319145 126.32976292988994 62.50969172605029 H 0.0 **** 0.06
28655 H 44.2274994059741 126.63032984739706 63.95005611056199 H 0.0 **** 0.06
28656 C 71.17534657119248 160.09726626960253 8.31149224429096 C 0.0 **** -0.24
28657 H 71.00033159204735 161.08316842712316 7.881741321068098 H 0.0 **** 0.06
28658 H 72.13406994213636 160.0918761468191 8.8309512466682 H 0.0 **** 0.06
28659 H 71.18828241689467 159.35113840253487 7.516918107886127 H 0.0 **** 0.06
28660 H 70.37859820204447 159.86260320116202 9.018064600095684 H 0.0 **** 0.06
28661 C 123.93561336688009 163.64079292318178 24.295405063472856 C 0.0 **** -0.24
28662 H 123.24749386014886 162.96477871837732 23.787221491738876 H 0.0 **** 0.06
28663 H 123.64828431936624 163.73114210942597 25.34348390516371 H 0.0 **** 0.06
28664 H 123.89805855363579 164.6213195305591 23.822072876449425 H 0.0 **** 0.06
28665 H 124.94862825638225 163.24420585424542 24.228691416941928 H 0.0 **** 0.06
28666 C 59.58505108915881 14.963959471511203 72.49893956299002 C 0.0 **** -0.24
28667 H 59.19057193385835 15.004039523214942 71.48375930196694 H 0.0 **** 0.06
28668 H 58.88866816862905 14.419509413462947 73.13733455844965 H 0.0 **** 0.06
28669 H 59.711069208257214 15.977303104410112 72.88022200540138 H 0.0 **** 0.06
28670 H 60.54776341088315 14.454404081313896 72.49409913271052 H 0.0 **** 0.06
28671 C 43.98954937890744 116.96594355647605 99.93440092112863 C 0.0 **** -0.24
28672 H 44.0312893939913 115.87865456662462 99.86473293708943 H 0.0 **** 0.06
28673 H 43.95512925826108 117.39225222822077 98.93192630774854 H 0.0 **** 0.06
28674 H 44.87431341825072 117.33035124560027 100.45608454755586 H 0.0 **** 0.06
28675 H 43.096077646822096 117.25951041051073 100.4846607939528 H 0.0 **** 0.06
28676 C 39.30511837531026 152.90119728598393 158.45691798971967 C 0.0 **** -0.24
28677 H 38.562603927770965 153.34141800634816 157.7920682541459 H 0.0 **** 0.06
28678 H 39.52840995132033 153.59917304270337 159.26435338941243 H 0.0 **** 0.06
28679 H 40.21585904674714 152.69086233608533 157.8958290175878 H 0.0 **** 0.06
28680 H 38.91343684798437 151.97468908545895 158.87579780290815 H 0.0 **** 0.06
28681 C 25.09719990214751 4.511666478813169 43.387816029535315 C 0.0 **** -0.24
28682 H 24.1696338112138 5.0092516287576245 43.67017987151627 H 0.0 **** 0.06
28683 H 25.93509759789731 5.194773980977487 43.534372623355125 H 0.0 **** 0.06
28684 H 25.047666648217756 4.218534460808883 42.33902278555007 H 0.0 **** 0.06
28685 H 25.237376692334863 3.6256965252792384 44.006456370735236 H 0.0 **** 0.06
28686 C 160.0889705763762 85.05226996778703 44.41386078688919 C 0.0 **** -0.24
28687 H 159.43691539517638 85.92475583399124 44.45281760928097 H 0.0 **** 0.06
28688 H 160.63773400548612 84.96723312066916 45.352398292736325 H 0.0 **** 0.06
28689 H 160.79321686180108 85.16182278367864 43.58948919611748 H 0.0 **** 0.06
28690 H 159.48739187955655 84.1553174483634 44.262637549263445 H 0.0 **** 0.06
28691 C 25.19570245862849 55.052878211939046 40.02269971780197 C 0.0 **** -0.24
28692 H 25.517751085844026 54.091263333613156 40.422341674232825 H 0.0 **** 0.06
28693 H 26.066029804791157 55.688396318092046 39.858705094920026 H 0.0 **** 0.06
28694 H 24.521982550935405 55.53438870538005 40.73239285738396 H 0.0 **** 0.06
28695 H 24.676150386024972 54.89746760005794 39.076915184015604 H 0.0 **** 0.06
28696 C 168.80074259429688 135.1640520651666 90.65442873581947 C 0.0 **** -0.24
28697 H 168.1455419119424 134.80948955950575 91.44966245039359 H 0.0 **** 0.06
28698 H 168.75690484931252 134.47197580884435 89.81303351769098 H 0.0 **** 0.06
28699 H 169.82359135523743 135.22216231939203 91.02445812838468 H 0.0 **** 0.06
28700 H 168.47532222391317 136.1521598079201 90.33008040725284 H 0.0 **** 0.06
28701 C 29.07868454277161 99.79346347648794 1.975813558009861 C 0.0 **** -0.24
28702 H 28.6489234798986 98.79243879197463 1.946793212408977 H 0.0 **** 0.06
28703 H 29.51539198758644 99.97210732903369 2.9588573982022695 H 0.0 **** 0.06
28704 H 28.29853028156765 100.52945701876803 1.7847848072381112 H 0.0 **** 0.06
28705 H 29.8525377020286 99.87754389898413 1.213330815245115 H 0.0 **** 0.06
28706 C 14.1778684276753 0.46860746133808107 162.01607873602921 C 0.0 **** -0.24
28707 H 13.436685395691462 1.2579001745794471 162.13851602307153 H 0.0 **** 0.06
28708 H 14.946012224381299 0.7968081082971139 161.31681227056913 H 0.0 **** 0.06
28709 H 13.691834587958503 -0.42836810688345395 161.62905781816926 H 0.0 **** 0.06
28710 H 14.634617107798562 0.2461332149905502 162.9808061886227 H 0.0 **** 0.06
28711 C 53.410897944256604 47.07422044935424 73.58347871671764 C 0.0 **** -0.24
28712 H 52.900117258512495 46.11126543462473 73.60091219973188 H 0.0 **** 0.06
28713 H 54.48959132552058 46.91313384312903 73.5901059772239 H 0.0 **** 0.06
28714 H 53.124205155521395 47.65247926224714 74.46156194816805 H 0.0 **** 0.06
28715 H 53.12993054756794 47.6178183083459 72.68173770064307 H 0.0 **** 0.06
28716 C 77.74166275800468 122.80592257868929 69.19987702504226 C 0.0 **** -0.24
28717 H 77.72667958990178 123.04653854136416 68.13782072153342 H 0.0 **** 0.06
28718 H 77.8032089502392 123.72714026352415 69.78009444614568 H 0.0 **** 0.06
28719 H 78.6072407396241 122.18025821726246 69.41870358317954 H 0.0 **** 0.06
28720 H 76.82984047247169 122.26930320970484 69.46372353797979 H 0.0 **** 0.06
28721 C 141.23967717994503 128.58746298437978 73.91669404702537 C 0.0 **** -0.24
28722 H 141.71189410223198 129.56327910804356 73.80434526661054 H 0.0 **** 0.06
28723 H 140.49623314329935 128.6327008434169 74.71339206012078 H 0.0 **** 0.06
28724 H 141.9974922866239 127.844776085467 74.16828826204318 H 0.0 **** 0.06
28725 H 140.75539412062494 128.30881429629585 72.98153043935974 H 0.0 **** 0.06
28726 C 152.57409839018234 93.82374806616994 61.865812988040176 C 0.0 **** -0.24
28727 H 153.31270478252964 93.18390383607081 61.381396653450736 H 0.0 **** 0.06
28728 H 152.36952782979904 93.4461138995797 62.86802929661863 H 0.0 **** 0.06
28729 H 151.6545528444726 93.82221818618922 61.281090133940594 H 0.0 **** 0.06
28730 H 152.9615732207627 94.84030782249087 61.931666582793085 H 0.0 **** 0.06
28731 C 136.37776607468535 121.86207716125196 147.21885861948837 C 0.0 **** -0.24
28732 H 136.74891015480358 122.5508955079049 146.45904246918892 H 0.0 **** 0.06
28733 H 136.54841592097398 122.28680792317371 148.20802826685627 H 0.0 **** 0.06
28734 H 136.9055683303022 120.91119522514728 147.13545266991466 H 0.0 **** 0.06
28735 H 135.3107802641907 121.70007323807224 147.07051390200084 H 0.0 **** 0.06
28736 C 96.38762061246823 119.01841257856566 16.412324063667654 C 0.0 **** -0.24
28737 H 95.97555850484846 119.9913299401303 16.145868079741035 H 0.0 **** 0.06
28738 H 95.58654997678988 118.27905174750151 16.43449621566637 H 0.0 **** 0.06
28739 H 96.85379482453871 119.07873450984866 17.395588038500307 H 0.0 **** 0.06
28740 H 97.13400494501633 118.72524291956807 15.673753704143962 H 0.0 **** 0.06
28741 C 91.62084442265723 115.74097177243269 38.09487900905225 C 0.0 **** -0.24
28742 H 91.8074709081628 116.68250877073635 37.579903498389626 H 0.0 **** 0.06
28743 H 92.46907652725542 115.07205549993438 37.94627036840831 H 0.0 **** 0.06
28744 H 90.71841272879324 115.27990450590809 37.693569656770535 H 0.0 **** 0.06
28745 H 91.48895519760792 115.92944344988206 39.16061530903801 H 0.0 **** 0.06
28746 C 98.85594311513185 106.5006744793912 66.02218965616458 C 0.0 **** -0.24
28747 H 99.26019270945346 107.5020380539367 66.17017087281909 H 0.0 **** 0.06
28748 H 99.48449155317974 105.95507939246119 65.31898909940793 H 0.0 **** 0.06
28749 H 97.84312663443936 106.57317228601954 65.6251996753079 H 0.0 **** 0.06
28750 H 98.83458002522616 105.97273892162963 66.97639450539748 H 0.0 **** 0.06
28751 C 151.50131991527746 151.78574428852448 16.98244203215478 C 0.0 **** -0.24
28752 H 152.1454652719991 150.90797779227492 17.014782040602597 H 0.0 **** 0.06
28753 H 151.20997536341252 151.9854152774379 15.951232531403463 H 0.0 **** 0.06
28754 H 152.03936100292637 152.64579792895495 17.38190257672153 H 0.0 **** 0.06
28755 H 150.61020158937635 151.60478532581607 17.58383223776906 H 0.0 **** 0.06
28756 C 71.67321894971334 117.50564089538403 123.54772745985548 C 0.0 **** -0.24
28757 H 72.47215400462571 116.78866039305393 123.3564581581276 H 0.0 **** 0.06
28758 H 70.80343486190219 117.24922581494414 122.94284554278073 H 0.0 **** 0.06
28759 H 72.01542042315627 118.50752223883762 123.28854005919874 H 0.0 **** 0.06
28760 H 71.40409745994802 117.47542899794121 124.60327472725996 H 0.0 **** 0.06
28761 C 114.796393805181 156.14398697687068 11.282817240462414 C 0.0 **** -0.24
28762 H 115.04232339987007 157.04050442175514 11.853323450047263 H 0.0 **** 0.06
28763 H 113.92714640602236 155.6596926442332 11.726873680054005 H 0.0 **** 0.06
28764 H 115.6439072765512 155.4586057697141 11.299178997565406 H 0.0 **** 0.06
28765 H 114.5723106601699 156.42045801127597 10.251782934354559 H 0.0 **** 0.06
28766 C 135.20059792763394 103.94594992821521 65.87837011647309 C 0.0 **** -0.24
28767 H 135.95256939439173 103.58898029851693 65.17440151513848 H 0.0 **** 0.06
28768 H 135.16353684866627 103.27895778344256 66.74010334709007 H 0.0 **** 0.06
28769 H 134.2263533697004 103.96428207062596 65.39042068835037 H 0.0 **** 0.06
28770 H 135.46115731202036 104.95183131610995 66.2078949721934 H 0.0 **** 0.06
28771 C 28.800441178831022 104.87325589986901 159.80518515132826 C 0.0 **** -0.24
28772 H 29.009850226909236 103.80906253679143 159.69608186965414 H 0.0 **** 0.06
28773 H 28.598809333797902 105.30530383969284 158.8243067698612 H 0.0 **** 0.06
28774 H 29.662181166444782 105.36985014884698 160.25132137992463 H 0.0 **** 0.06
28775 H 27.930155441599055 105.00739324328671 160.44747798865214 H 0.0 **** 0.06
28776 C 115.66828103729824 19.09769030796025 27.040050312394754 C 0.0 **** -0.24
28777 H 116.36402892772455 19.103092900901487 27.879578687324795 H 0.0 **** 0.06
28778 H 114.6471499259855 19.029513020094214 27.417057387575028 H 0.0 **** 0.06
28779 H 115.87807871276388 18.241059012597447 26.40018710780953 H 0.0 **** 0.06
28780 H 115.78403496736746 20.01696365731968 26.466977291245712 H 0.0 **** 0.06
28781 C 111.30505032342546 105.76260369297526 60.775916668787985 C 0.0 **** -0.24
28782 H 111.06816762784948 105.54474438305724 59.733792810307065 H 0.0 **** 0.06
28783 H 112.14457769031262 105.1449672984296 61.09382742407912 H 0.0 **** 0.06
28784 H 110.43685639714474 105.54671507768359 61.39730105228759 H 0.0 **** 0.06
28785 H 111.57015305443176 106.8154237060964 60.874302414765424 H 0.0 **** 0.06
28786 C 122.14456962225603 147.2929817394375 82.2360353324303 C 0.0 **** -0.24
28787 H 121.68473885429381 147.5779168550361 83.18219167391837 H 0.0 **** 0.06
28788 H 121.39083108717244 146.84615155737322 81.5867255220241 H 0.0 **** 0.06
28789 H 122.93958372597427 146.57136543467624 82.42095054816765 H 0.0 **** 0.06
28790 H 122.56082744718822 148.1773187952328 81.75447479066177 H 0.0 **** 0.06
28791 C 158.18200712165446 63.61420528176778 42.904742453501214 C 0.0 **** -0.24
28792 H 158.26245412031898 63.53682755099291 41.82030934720615 H 0.0 **** 0.06
28793 H 157.17221027678573 63.92400496849669 43.17298983522025 H 0.0 **** 0.06
28794 H 158.89771358077394 64.35160450207755 43.27063982813944 H 0.0 **** 0.06
28795 H 158.39745228734898 62.64525202600784 43.355010320081504 H 0.0 **** 0.06
28796 C 37.05238620925596 61.735490351783824 170.89648627856877 C 0.0 **** -0.24
28797 H 36.25875664546561 61.829511847705305 171.63738252311992 H 0.0 **** 0.06
28798 H 37.93367786172976 62.27704836446452 171.23866912118262 H 0.0 **** 0.06
28799 H 36.71380547996881 62.15273027426008 169.9479631471715 H 0.0 **** 0.06
28800 H 37.300870158042514 60.682401938347965 170.761939906033 H 0.0 **** 0.06
28801 C 37.76722230972243 105.27330473580093 67.6835940163439 C 0.0 **** -0.24
28802 H 37.215637640878555 104.72697497598011 68.44846349653304 H 0.0 **** 0.06
28803 H 37.124473080046926 105.43359055044169 66.8164215156762 H 0.0 **** 0.06
28804 H 38.64305586340697 104.69707787189401 67.38571758965107 H 0.0 **** 0.06
28805 H 38.08508175557972 106.23655700572402 68.08249829022361 H 0.0 **** 0.06
28806 C 37.271057162258785 113.36062645944355 100.94987487527567 C 0.0 **** -0.24
28807 H 36.76635112542911 112.82939716906392 101.75717064387527 H 0.0 **** 0.06
28808 H 36.532188908906335 113.71408144844875 100.22963984304815 H 0.0 **** 0.06
28809 H 37.97050462679226 112.68884262304277 100.45338028669309 H 0.0 **** 0.06
28810 H 37.814122693253466 114.21170819968819 101.36090636848601 H 0.0 **** 0.06
28811 C 165.4092869618745 96.11348504129543 126.95560038591321 C 0.0 **** -0.24
28812 H 164.66573353702424 96.61959394241975 126.34037583071233 H 0.0 **** 0.06
28813 H 164.90689463566363 95.46560488809789 127.67401561910106 H 0.0 **** 0.06
28814 H 166.0046783289749 96.85473942052715 127.48870849097926 H 0.0 **** 0.06
28815 H 166.06110299324186 95.51524684682721 126.31837505003108 H 0.0 **** 0.06
28816 C 0.03840039359741354 57.73384328093968 164.746307091219 C 0.0 **** -0.24
28817 H -0.8205520045467836 57.13704791912278 165.0519903249853 H 0.0 **** 0.06
28818 H -0.3065751390158198 58.684704026931456 164.34011759168183 H 0.0 **** 0.06
28819 H 0.6022033946616716 57.195749502928265 163.9839623787421 H 0.0 **** 0.06
28820 H 0.6785253232905006 57.91787167477625 165.6091580694668 H 0.0 **** 0.06
28821 C 114.43115412253749 100.02470495176661 76.7319773335198 C 0.0 **** -0.24
28822 H 114.05741564978211 99.22380250990537 76.09481959050335 H 0.0 **** 0.06
28823 H 115.25501145761172 99.65078521444607 77.33928391694684 H 0.0 **** 0.06
28824 H 113.6295345926516 100.3748768178765 77.3830195791066 H 0.0 **** 0.06
28825 H 114.78145067390616 100.84994216237769 76.11123980162381 H 0.0 **** 0.06
28826 C 10.478018793247855 30.054002169025864 17.184585045969868 C 0.0 **** -0.24
28827 H 10.776625069001227 31.024139136942154 16.784892919500408 H 0.0 **** 0.06
28828 H 10.798918188169324 29.266871828733258 16.502368374337863 H 0.0 **** 0.06
28829 H 9.39345694877818 30.023622650914035 17.290801268553594 H 0.0 **** 0.06
28830 H 10.94369917173816 29.903480815971506 18.158233994900797 H 0.0 **** 0.06
28831 C 54.20915555347514 97.17663543863512 16.67761839845671 C 0.0 **** -0.24
28832 H 54.608131873244645 96.69776903968216 17.571954498393957 H 0.0 **** 0.06
28833 H 54.93913512160816 97.10458906815836 15.870615071635498 H 0.0 **** 0.06
28834 H 54.00266467560124 98.22647689533926 16.888707605665637 H 0.0 **** 0.06
28835 H 53.287107455488126 96.67848634887486 16.379663793781233 H 0.0 **** 0.06
28836 C 37.00974768982218 158.45745425459546 143.10404573586158 C 0.0 **** -0.24
28837 H 38.01869674940414 158.04993172358792 143.04823945678484 H 0.0 **** 0.06
28838 H 37.053851138024925 159.4935661783335 143.4404282071522 H 0.0 **** 0.06
28839 H 36.41923786618784 157.87150485703071 143.80879296259909 H 0.0 **** 0.06
28840 H 36.54558125849343 158.415143016787 142.11821689876993 H 0.0 **** 0.06
28841 C 154.33440504859328 93.24365216049796 50.418621465808314 C 0.0 **** -0.24
28842 H 154.89359500716864 93.07374227843258 51.33831510370018 H 0.0 **** 0.06
28843 H 154.76304517651272 94.09256400207443 49.88443183956457 H 0.0 **** 0.06
28844 H 153.29307706153213 93.45550986305943 50.66116944361907 H 0.0 **** 0.06
28845 H 154.38737556783852 92.3548511899391 49.79126503213618 H 0.0 **** 0.06
28846 C 31.264745349753127 39.30014926132331 39.2999820591038 C 0.0 **** -0.24
28847 H 32.22809483178861 38.932403620686785 39.65475400460454 H 0.0 **** 0.06
28848 H 31.21141478394057 39.191810352386256 38.21708008154707 H 0.0 **** 0.06
28849 H 31.15797005104136 40.35212703635588 39.5666297873091 H 0.0 **** 0.06
28850 H 30.463634425308925 38.72461491661818 39.76377154829731 H 0.0 **** 0.06
28851 C 31.946051155923726 41.4845647080225 81.89823040291824 C 0.0 **** -0.24
28852 H 32.65690106592547 41.87535304938581 81.17089551923425 H 0.0 **** 0.06
28853 H 30.94736408132718 41.47596664769715 81.46159853822769 H 0.0 **** 0.06
28854 H 31.949818210630156 42.11698717319115 82.78615316284521 H 0.0 **** 0.06
28855 H 32.23093054808123 40.4693086039768 82.17523938295291 H 0.0 **** 0.06
28856 C 126.605681513246 117.5293160673711 88.30792179622536 C 0.0 **** -0.24
28857 H 126.14950318665316 118.51810743850189 88.36581111502183 H 0.0 **** 0.06
28858 H 126.14527062642424 116.87291493377924 89.04611048664033 H 0.0 **** 0.06
28859 H 127.67426490314168 117.61001901082207 88.50796121000052 H 0.0 **** 0.06
28860 H 126.45282621337267 117.11751427784876 87.3099093950932 H 0.0 **** 0.06
28861 C 143.72997309664046 140.57117593096325 139.27312321696303 C 0.0 **** -0.24
28862 H 143.30636551530415 139.7577051336549 138.68340032637377 H 0.0 **** 0.06
28863 H 144.06863990097767 141.36494404422845 138.60646273841752 H 0.0 **** 0.06
28864 H 144.57401324955296 140.19866138746343 139.85267501862177 H 0.0 **** 0.06
28865 H 142.9688120983277 140.96295295396345 139.94870734681132 H 0.0 **** 0.06
28866 C 95.8596390306856 152.1405210389317 27.930553906421437 C 0.0 **** -0.24
28867 H 96.73321535885088 152.64888077087187 28.339227345911866 H 0.0 **** 0.06
28868 H 95.06649498135712 152.86702342412045 27.752612908497014 H 0.0 **** 0.06
28869 H 95.51240751593741 151.38829305019652 28.63926790347483 H 0.0 **** 0.06
28870 H 96.12744401069352 151.6572840079063 26.990316871133558 H 0.0 **** 0.06
28871 C 156.42401382243753 69.27398004333249 151.70371473681098 C 0.0 **** -0.24
28872 H 156.997477804818 70.07362625248959 152.1744558929692 H 0.0 **** 0.06
28873 H 156.6976305889164 68.31870969599663 152.15128104812868 H 0.0 **** 0.06
28874 H 156.6422805738218 69.25129299218074 150.63554052945497 H 0.0 **** 0.06
28875 H 155.3599550674382 69.45567629407103 151.85264292141602 H 0.0 **** 0.06
28876 C 107.58719342689773 18.27778722157248 72.40260760965958 C 0.0 **** -0.24
28877 H 108.03796782601461 17.481856279747717 72.99443826977662 H 0.0 **** 0.06
28878 H 108.08459270554823 18.337223401146645 71.43493077217816 H 0.0 **** 0.06
28879 H 107.69797604304244 19.227238865601294 72.92695004392881 H 0.0 **** 0.06
28880 H 106.5286046852209 18.066294965536997 72.25576056967452 H 0.0 **** 0.06
28881 C 72.92873948953849 30.150895145564846 148.11598742793794 C 0.0 **** -0.24
28882 H 72.96188568264795 31.137065731168832 148.57736259651523 H 0.0 **** 0.06
28883 H 73.94443617490488 29.775684729017883 147.98598894434005 H 0.0 **** 0.06
28884 H 72.44007657681955 30.22047605057952 147.14350900906368 H 0.0 **** 0.06
28885 H 72.36808851522862 29.469509746753033 148.75533833962479 H 0.0 **** 0.06
28886 C 101.30165645899979 109.61817796151882 9.640111685595613 C 0.0 **** -0.24
28887 H 101.64598928412997 110.60411046855671 9.325087509631537 H 0.0 **** 0.06
28888 H 101.20984792617821 109.59602980599075 10.725954599622753 H 0.0 **** 0.06
28889 H 102.01966857408786 108.8636271291696 9.32018387346151 H 0.0 **** 0.06
28890 H 100.33139674384202 109.4115727130025 9.188212861715478 H 0.0 **** 0.06
28891 C 116.1200539762564 23.55731077459575 145.17320409286862 C 0.0 **** -0.24
28892 H 116.03451610292788 22.799181487794925 144.3944426055487 H 0.0 **** 0.06
28893 H 117.1261768696207 23.977219177743848 145.16244032302154 H 0.0 **** 0.06
28894 H 115.92663750240541 23.102838361618296 146.1448460417609 H 0.0 **** 0.06
28895 H 115.39350489965429 24.349016623858006 144.9918881888779 H 0.0 **** 0.06
28896 C 112.18165224876819 21.559313698702113 165.030869504223 C 0.0 **** -0.24
28897 H 111.67795616704197 20.705003695634048 164.5784229710076 H 0.0 **** 0.06
28898 H 111.69703125082657 22.48049684187845 164.70550459600676 H 0.0 **** 0.06
28899 H 113.2265756602298 21.568862596168856 164.7228386089078 H 0.0 **** 0.06
28900 H 112.12278511321395 21.480681350091743 166.11665208478038 H 0.0 **** 0.06
28901 C 131.27627252510555 27.434211301252084 105.78316457773903 C 0.0 **** -0.24
28902 H 132.1602408488423 28.0733368150527 105.78645323213959 H 0.0 **** 0.06
28903 H 131.12486777703808 27.020354447728785 106.78005889971493 H 0.0 **** 0.06
28904 H 131.4177040172772 26.622800544426468 105.06958985345875 H 0.0 **** 0.06
28905 H 130.404902677269 28.02309023258617 105.49817448204053 H 0.0 **** 0.06
28906 C 7.49035074685122 101.404530179245 125.29769232964458 C 0.0 **** -0.24
28907 H 7.8295623765300775 101.36431042246917 126.33264741003279 H 0.0 **** 0.06
28908 H 6.698668377114075 100.66989448862012 125.1461910132893 H 0.0 **** 0.06
28909 H 8.324232121559135 101.18225001544042 124.63252201911286 H 0.0 **** 0.06
28910 H 7.107987779298185 102.40194816028972 125.07929330258759 H 0.0 **** 0.06
28911 C 97.41064321552705 73.58995573676908 39.483945050698054 C 0.0 **** -0.24
28912 H 96.38366210653072 73.23391948021955 39.40965414138867 H 0.0 **** 0.06
28913 H 97.52075493007482 74.1972581576913 40.38336509439796 H 0.0 **** 0.06
28914 H 97.65151563620299 74.19178286760707 38.608001702349156 H 0.0 **** 0.06
28915 H 98.08755720383078 72.73708828418441 39.536211216189145 H 0.0 **** 0.06
28916 C 138.90737794105644 23.246015656623854 53.41168103452276 C 0.0 **** -0.24
28917 H 138.63437817401288 23.582465055625335 52.41099719741311 H 0.0 **** 0.06
28918 H 139.53470238965156 23.99926805777477 53.88882467644231 H 0.0 **** 0.06
28919 H 139.45630223956852 22.306551038267116 53.34225807046681 H 0.0 **** 0.06
28920 H 138.0041843705884 23.096399624584024 54.00337487953573 H 0.0 **** 0.06
28921 C 99.47498919975385 26.224853498517803 165.32967246518288 C 0.0 **** -0.24
28922 H 99.83729800268614 27.21001018934541 165.037616335642 H 0.0 **** 0.06
28923 H 100.18293091351148 25.464507350065816 164.99790223575314 H 0.0 **** 0.06
28924 H 98.50452727294342 26.04428318094321 164.8682613993342 H 0.0 **** 0.06
28925 H 99.3763039187842 26.181312716708845 166.41436809224123 H 0.0 **** 0.06
28926 C 74.73630327270561 80.35547361608359 3.4616276131493464 C 0.0 **** -0.24
28927 H 75.1131150060138 79.34303257117577 3.312278132033839 H 0.0 **** 0.06
28928 H 74.17413821408462 80.40016327330939 4.3951095374986835 H 0.0 **** 0.06
28929 H 74.08367862900985 80.62490895030047 2.6304429791004793 H 0.0 **** 0.06
28930 H 75.57285869314015 81.05154714255599 3.5060439323272874 H 0.0 **** 0.06
28931 C 76.66074694983789 62.806082977063284 122.45324351200651 C 0.0 **** -0.24
28932 H 77.36900983693113 62.0369068095205 122.7605835200734 H 0.0 **** 0.06
28933 H 77.01836532627685 63.28574924229697 121.54187170594463 H 0.0 **** 0.06
28934 H 76.56742250424908 63.55091626178216 123.24329420573605 H 0.0 **** 0.06
28935 H 75.68869514970608 62.35051548272938 122.26639673082678 H 0.0 **** 0.06
28936 C 39.36074351524704 16.204344685233764 41.2984876816073 C 0.0 **** -0.24
28937 H 38.91509247704104 15.775407183574458 42.19643087521604 H 0.0 **** 0.06
28938 H 38.812047464335635 15.860936938825716 40.420618675621824 H 0.0 **** 0.06
28939 H 40.40114116857811 15.88941929740571 41.223222252523556 H 0.0 **** 0.06
28940 H 39.31327529100443 17.29257701973671 41.353934773857986 H 0.0 **** 0.06
28941 C 83.5497120853429 14.684509034646247 50.038472195173256 C 0.0 **** -0.24
28942 H 84.13135761172417 15.069766479287871 49.20222204679965 H 0.0 **** 0.06
28943 H 82.98334926879866 15.497475205558722 50.49286008157759 H 0.0 **** 0.06
28944 H 84.22204044110622 14.25069117044297 50.7787294684195 H 0.0 **** 0.06
28945 H 82.86175388406528 13.91789431901423 49.68006654032618 H 0.0 **** 0.06
28946 C 77.75878645438553 158.87735156792724 31.25602774650558 C 0.0 **** -0.24
28947 H 76.97785645572648 158.22655304632684 31.64940772501639 H 0.0 **** 0.06
28948 H 77.3634676564139 159.88707163384282 31.13876452870673 H 0.0 **** 0.06
28949 H 78.0902983557383 158.50268492193857 30.28832225912582 H 0.0 **** 0.06
28950 H 78.60060766363152 158.8942296812795 31.947152427035718 H 0.0 **** 0.06
28951 C 135.79496566013427 65.52851994212283 17.287749498397893 C 0.0 **** -0.24
28952 H 135.88302994951385 64.74906134744211 16.5302006910308 H 0.0 **** 0.06
28953 H 135.2639193551471 66.38360602692218 16.868756882365346 H 0.0 **** 0.06
28954 H 136.78947491875707 65.83915045178816 17.607202455323716 H 0.0 **** 0.06
28955 H 135.24220293706625 65.14096910242323 18.143163951257016 H 0.0 **** 0.06
28956 C 115.8609646409027 85.22088273109512 57.11353320572812 C 0.0 **** -0.24
28957 H 116.58921581827525 85.07113833103705 57.91000165790132 H 0.0 **** 0.06
28958 H 115.02845800438544 85.81625192582095 57.49004541058173 H 0.0 **** 0.06
28959 H 115.49119740042653 84.25294420669047 56.77376208704959 H 0.0 **** 0.06
28960 H 116.33435856497499 85.741117540755 56.2808555247683 H 0.0 **** 0.06
28961 C 73.9700944912958 14.668518102587626 93.61724520761234 C 0.0 **** -0.24
28962 H 73.1904132369931 15.360537069531517 93.93635191486567 H 0.0 **** 0.06
28963 H 73.62686934941274 14.1108543594367 92.74579880099319 H 0.0 **** 0.06
28964 H 74.19369435204149 13.974650502971485 94.4274760614363 H 0.0 **** 0.06
28965 H 74.86985005679853 15.227837810081382 93.36022656610513 H 0.0 **** 0.06
28966 C 157.05364018352435 119.3040055204201 80.13251777107641 C 0.0 **** -0.24
28967 H 157.29741355434072 118.25330552779613 79.97613603563269 H 0.0 **** 0.06
28968 H 156.20080841126867 119.38294535297516 80.80762419983772 H 0.0 **** 0.06
28969 H 156.80459575409355 119.76544701501265 79.17634527858768 H 0.0 **** 0.06
28970 H 157.91246318439227 119.81489228114722 80.56888915080145 H 0.0 **** 0.06
28971 C 84.88940824458673 92.43276245492459 54.39154781596727 C 0.0 **** -0.24
28972 H 85.48612947319695 92.30064529345103 53.488432626638144 H 0.0 **** 0.06
28973 H 85.40693678021758 93.1076552791146 55.07282900442215 H 0.0 **** 0.06
28974 H 84.74489290339167 91.46756850672327 54.87558614762628 H 0.0 **** 0.06
28975 H 83.91927495130146 92.85513725021227 54.1269270459166 H 0.0 **** 0.06
28976 C 45.1558490718686 72.85559521319674 79.31916157831478 C 0.0 **** -0.24
28977 H 44.33470925956195 73.34545286879543 78.79687521958317 H 0.0 **** 0.06
28978 H 44.77082199610271 72.01003568446997 79.88877496247846 H 0.0 **** 0.06
28979 H 45.63038594465539 73.5650285476795 79.99711016420127 H 0.0 **** 0.06
28980 H 45.888136166765534 72.50239565542924 78.59335178267426 H 0.0 **** 0.06
28981 C 160.358093700191 24.05891198080417 64.9587326525052 C 0.0 **** -0.24
28982 H 161.0402216911051 24.307873464137003 65.77133511059901 H 0.0 **** 0.06
28983 H 159.89728688928625 24.97052097780579 64.57840476447598 H 0.0 **** 0.06
28984 H 159.58411642175804 23.38607326359795 65.32726270984688 H 0.0 **** 0.06
28985 H 160.91197166300495 23.57009824087072 64.1563994593447 H 0.0 **** 0.06
28986 C 60.71911663763636 154.20420781674616 18.496984218638445 C 0.0 **** -0.24
28987 H 60.0567019700716 154.08856494300744 19.353843408174704 H 0.0 **** 0.06
28988 H 60.28542184097441 153.7024459099903 17.63227734198051 H 0.0 **** 0.06
28989 H 61.68942465388149 153.7626573842183 18.7254197005106 H 0.0 **** 0.06
28990 H 60.84559943843695 155.26437187447328 18.276123461107197 H 0.0 **** 0.06
28991 C 151.49108303873825 59.73283590649791 70.93865376884179 C 0.0 **** -0.24
28992 H 150.64835964157956 60.423790089838846 70.96140850158396 H 0.0 **** 0.06
28993 H 152.19767790717177 60.045667153893035 70.16922637326557 H 0.0 **** 0.06
28994 H 151.13161337257023 58.728698316235395 70.71551385400865 H 0.0 **** 0.06
28995 H 151.98740801259416 59.73320953630336 71.9091529026234 H 0.0 **** 0.06
28996 C 59.16219936088133 144.16674917780375 87.38448572331207 C 0.0 **** -0.24
28997 H 59.61064095746525 144.89673217428924 86.71140912015306 H 0.0 **** 0.06
28998 H 59.44120735580745 144.4016612860599 88.41174422553803 H 0.0 **** 0.06
28999 H 59.5198610697897 143.16988682725435 87.12876573653789 H 0.0 **** 0.06
29000 H 58.07730449389403 144.19967291226556 87.28582807150761 H 0.0 **** 0.06
29001 C 37.855106795959045 103.2749363088281 47.93197867838218 C 0.0 **** -0.24
29002 H 37.69494697894709 103.7565011346804 48.89650878685909 H 0.0 **** 0.06
29003 H 36.922964173650826 102.82260771485986 47.5926452512977 H 0.0 **** 0.06
29004 H 38.618147653870494 102.5029706972837 48.03388521002097 H 0.0 **** 0.06
29005 H 38.18513723755069 104.01697814430366 47.20584303595663 H 0.0 **** 0.06
29006 C 81.03349440658481 81.96484396287912 171.28950435774192 C 0.0 **** -0.24
29007 H 80.61827379146614 82.79907133199863 171.85374072967252 H 0.0 **** 0.06
29008 H 80.50653873355907 81.87094993920167 170.33951075740273 H 0.0 **** 0.06
29009 H 80.91602967330275 81.044253106536 171.86251111086 H 0.0 **** 0.06
29010 H 82.09202034413185 82.1423757615758 171.10282696265787 H 0.0 **** 0.06
29011 C 67.32408734500031 81.26679031312506 168.97950591524315 C 0.0 **** -0.24
29012 H 67.22848814766482 82.22523998327563 169.48781207639465 H 0.0 **** 0.06
29013 H 68.05900363319493 80.65140969591323 169.49967412431965 H 0.0 **** 0.06
29014 H 67.64927111794836 81.43093023526967 167.9525508222519 H 0.0 **** 0.06
29015 H 66.3596310272444 80.7585670154017 168.97897112827823 H 0.0 **** 0.06
29016 C 98.36340517909426 137.80096000858043 72.49179685025507 C 0.0 **** -0.24
29017 H 97.3690646261835 137.4139141196979 72.26991958726697 H 0.0 **** 0.06
29018 H 98.37730217108796 138.21174800633753 73.50197669358101 H 0.0 **** 0.06
29019 H 98.6164024626541 138.58384786179442 71.77681631257673 H 0.0 **** 0.06
29020 H 99.09251666879067 136.99312481260915 72.4175946832786 H 0.0 **** 0.06
29021 C 135.70980911839243 158.11770221192307 94.80196980373046 C 0.0 **** -0.24
29022 H 135.3945783078609 157.44914886262472 94.00077310854385 H 0.0 **** 0.06
29023 H 134.98545357439107 158.07736698634756 95.61595034542029 H 0.0 **** 0.06
29024 H 135.7710556086253 159.13709268728059 94.42087780403943 H 0.0 **** 0.06
29025 H 136.68806335133698 157.80779963809758 95.16948202805224 H 0.0 **** 0.06
29026 C 162.46393186155464 152.06804858906636 160.31612660906768 C 0.0 **** -0.24
29027 H 162.46289808492332 151.1725781813486 160.93738248029675 H 0.0 **** 0.06
29028 H 161.45859787169374 152.2481937321285 159.93720914725657 H 0.0 **** 0.06
29029 H 163.1483255353538 151.92790818850742 159.47950175355743 H 0.0 **** 0.06
29030 H 162.7874836767895 152.92271557094256 160.91134740425625 H 0.0 **** 0.06
29031 C 53.078822472684465 106.60291016686358 155.61669103254047 C 0.0 **** -0.24
29032 H 52.20489628505757 105.99570681801583 155.38437390103934 H 0.0 **** 0.06
29033 H 53.16415565845796 107.41128155769115 154.88943236454566 H 0.0 **** 0.06
29034 H 53.97337221724928 105.9816255438243 155.5766367100398 H 0.0 **** 0.06
29035 H 52.9736493286357 107.02341213740874 156.61680846964234 H 0.0 **** 0.06
29036 C 130.5526176545835 54.75247041999667 4.943939060338884 C 0.0 **** -0.24
29037 H 129.6617798295937 54.4387581701352 5.487464367947133 H 0.0 **** 0.06
29038 H 130.2576455970723 55.30812826049768 4.053620553411541 H 0.0 **** 0.06
29039 H 131.12669135643532 53.87356677716852 4.6498472919951865 H 0.0 **** 0.06
29040 H 131.16331385758102 55.38873228999972 5.583626588799213 H 0.0 **** 0.06
29041 C 64.32330993251162 27.96368343509573 6.331262496401223 C 0.0 **** -0.24
29042 H 65.25360434955348 28.46204132953875 6.056724845504135 H 0.0 **** 0.06
29043 H 64.5490278710703 27.060410271397018 6.89900206614044 H 0.0 **** 0.06
29044 H 63.77273640272671 27.69908970200663 5.428702182596055 H 0.0 **** 0.06
29045 H 63.71861370984422 28.635182886793928 6.941840243457676 H 0.0 **** 0.06
29046 C 59.9068478440945 128.0959552064342 84.37988252350607 C 0.0 **** -0.24
29047 H 60.15082057178711 127.57355456084622 83.45434857772852 H 0.0 **** 0.06
29048 H 60.0650508179819 129.16682413397928 84.24432146085951 H 0.0 **** 0.06
29049 H 60.549670287461964 127.73207708674113 85.18090698132687 H 0.0 **** 0.06
29050 H 58.86475304299961 127.91154402670196 84.63759957654736 H 0.0 **** 0.06
29051 C 39.51784397776976 48.135179497013 80.11849912095133 C 0.0 **** -0.24
29052 H 39.59109244626694 48.982524480508545 80.80070755273186 H 0.0 **** 0.06
29053 H 38.530475677122354 48.12487885276519 79.65773139371277 H 0.0 **** 0.06
29054 H 39.67037432267449 47.20941335034142 80.6728335925553 H 0.0 **** 0.06
29055 H 40.27963355271464 48.22589864436881 79.34516748269706 H 0.0 **** 0.06
29056 C 20.45274073877431 72.2690853172628 86.48365851779526 C 0.0 **** -0.24
29057 H 20.987479810225523 72.64941309831991 87.35450644579556 H 0.0 **** 0.06
29058 H 21.161133491011014 71.80504484925945 85.7975963266014 H 0.0 **** 0.06
29059 H 19.945787650159104 73.09301316883364 85.97989995551842 H 0.0 **** 0.06
29060 H 19.717525635880634 71.53105633448965 86.80209079768277 H 0.0 **** 0.06
29061 C 103.9546965332849 23.55733920112877 149.7228524062333 C 0.0 **** -0.24
29062 H 104.00631936795503 22.936296122798893 148.82849913917323 H 0.0 **** 0.06
29063 H 104.95863503251525 23.700951453690948 150.1227388960491 H 0.0 **** 0.06
29064 H 103.33231579851275 23.067132490669536 150.47097122419416 H 0.0 **** 0.06
29065 H 103.52253496483547 24.525669561646765 149.46850637211537 H 0.0 **** 0.06
29066 C 10.549504029082328 159.23375339060658 148.0934333368665 C 0.0 **** -0.24
29067 H 9.899554822748485 159.51030951112602 147.26291184850587 H 0.0 **** 0.06
29068 H 10.08764802098176 159.54008660495234 149.03320471149016 H 0.0 **** 0.06
29069 H 11.512772660136363 159.73147817483292 147.9821240114541 H 0.0 **** 0.06
29070 H 10.696337841255598 158.15417457618884 148.09532299328208 H 0.0 **** 0.06
29071 C 21.989312491600707 60.309826150469945 63.53959101282439 C 0.0 **** -0.24
29072 H 22.18794682651648 60.99129986044686 62.7112050979261 H 0.0 **** 0.06
29073 H 21.817906901065236 59.30612876758238 63.14923745284072 H 0.0 **** 0.06
29074 H 21.10529530630538 60.64560566291871 64.08190081968065 H 0.0 **** 0.06
29075 H 22.846519068938775 60.29711864912052 64.21240047708565 H 0.0 **** 0.06
29076 C 66.34014821389768 164.19102371321748 115.48078833595633 C 0.0 **** -0.24
29077 H 65.41067493126839 163.6323529826672 115.59206108849475 H 0.0 **** 0.06
29078 H 66.13695632281187 165.1393520520163 114.98315332263502 H 0.0 **** 0.06
29079 H 67.04363486778298 163.61058872235856 114.88284271242719 H 0.0 **** 0.06
29080 H 66.7700578644711 164.38012160691284 116.46381368197251 H 0.0 **** 0.06
29081 C 149.55776004677776 60.56115718151055 156.9085038045764 C 0.0 **** -0.24
29082 H 149.32202977174205 60.12857326060296 155.93616920442471 H 0.0 **** 0.06
29083 H 150.3463548717045 61.3052303170478 156.7924452803225 H 0.0 **** 0.06
29084 H 149.8961186069437 59.77461071224555 157.58320472257614 H 0.0 **** 0.06
29085 H 148.6677017591441 61.03565855662936 157.32104090471825 H 0.0 **** 0.06
29086 C 65.10167424011634 1.3344932170957264 134.4551221531759 C 0.0 **** -0.24
29087 H 64.93880623238942 0.8802755234228528 133.4780420808652 H 0.0 **** 0.06
29088 H 64.98586804044015 0.5777566808043275 135.2312052229192 H 0.0 **** 0.06
29089 H 64.37275873967712 2.1303283658342878 134.61143857043658 H 0.0 **** 0.06
29090 H 66.10860868048502 1.7493968653731642 134.4990786935154 H 0.0 **** 0.06
29091 C 17.645443568551457 3.9525058976745697 129.23936872560964 C 0.0 **** -0.24
29092 H 17.676293732581968 2.872634458242146 129.09410644996126 H 0.0 **** 0.06
29093 H 18.4313917673322 4.421142618435425 128.6461746015169 H 0.0 **** 0.06
29094 H 17.799325158770955 4.182263247879121 130.29354432365213 H 0.0 **** 0.06
29095 H 16.674367807654477 4.332786897507134 128.92180231917627 H 0.0 **** 0.06
29096 C 151.24942695457415 20.36423066841057 135.04745829733545 C 0.0 **** -0.24
29097 H 151.26989153187282 20.432979288257734 133.96023247520833 H 0.0 **** 0.06
29098 H 150.53782866599144 19.59566281960884 135.3495965596906 H 0.0 **** 0.06
29099 H 150.94776200276232 21.32467484200434 135.4656812505719 H 0.0 **** 0.06
29100 H 152.2431494955574 20.103926450075505 135.41411406848457 H 0.0 **** 0.06
29101 C 126.12930296567376 26.867974522435077 114.87711832834847 C 0.0 **** -0.24
29102 H 125.9847006935104 27.940167771710946 114.74352187930356 H 0.0 **** 0.06
29103 H 127.15511500400035 26.60555984454632 114.61901297274827 H 0.0 **** 0.06
29104 H 125.44065115638966 26.325733044767162 114.22954127725939 H 0.0 **** 0.06
29105 H 125.9353923413517 26.6031094583235 115.91657268323596 H 0.0 **** 0.06
29106 C 67.45158246931511 169.6986328172331 35.18890770090002 C 0.0 **** -0.24
29107 H 66.75623892544637 168.94962014712553 34.809160971394704 H 0.0 **** 0.06
29108 H 67.76262233767679 169.42692523299695 36.19857518426036 H 0.0 **** 0.06
29109 H 66.96122656894627 170.6716750044357 35.20898668607313 H 0.0 **** 0.06
29110 H 68.32534309386266 169.7458765108775 34.53885109266611 H 0.0 **** 0.06
29111 C 47.318005664630334 77.44891196049653 132.32726326069832 C 0.0 **** -0.24
29112 H 47.5006560905058 78.18663464340244 133.1089635008148 H 0.0 **** 0.06
29113 H 47.588309383710794 77.87187609399027 131.35893507836778 H 0.0 **** 0.06
29114 H 46.26335270333374 77.175708128765 132.3242715781222 H 0.0 **** 0.06
29115 H 47.92333986800227 76.56144503153337 132.51776837653478 H 0.0 **** 0.06
29116 C 107.99120682033492 113.94838610138277 105.12130321645421 C 0.0 **** -0.24
29117 H 107.71044930441329 112.90836928642182 105.28404041100205 H 0.0 **** 0.06
29118 H 109.07730458446736 114.03565435288323 105.12233255631796 H 0.0 **** 0.06
29119 H 107.57599665636303 114.56647259691675 105.91835455357435 H 0.0 **** 0.06
29120 H 107.6006412635445 114.2842201308257 104.16114634849612 H 0.0 **** 0.06
29121 C 50.35385095490136 69.7829954029429 163.09770610854184 C 0.0 **** -0.24
29122 H 51.18428656835991 69.16362002418674 163.43652909425623 H 0.0 **** 0.06
29123 H 49.42353122522434 69.41071703840248 163.5274423337205 H 0.0 **** 0.06
29124 H 50.29259481902321 69.74518353697749 162.00962607403318 H 0.0 **** 0.06
29125 H 50.51547384492807 70.81224673184772 163.41591498687626 H 0.0 **** 0.06
29126 C 81.6262030910741 103.9007293481034 98.46801568707548 C 0.0 **** -0.24
29127 H 80.88861007802528 103.35702073902158 97.87816090304051 H 0.0 **** 0.06
29128 H 81.8810061164747 103.32011262670304 99.35504998603972 H 0.0 **** 0.06
29129 H 81.21141279365821 104.86284394700505 98.77011288538853 H 0.0 **** 0.06
29130 H 82.52151263122367 104.06355264219064 97.8694235556755 H 0.0 **** 0.06
29131 C 103.28842179772641 21.919624946057695 38.250169457304196 C 0.0 **** -0.24
29132 H 102.71844506144251 21.224132839364827 37.634556413623045 H 0.0 **** 0.06
29133 H 102.81480895292191 22.90134703102982 38.22194131589447 H 0.0 **** 0.06
29134 H 104.30536058174971 21.995506882696546 37.8657223014589 H 0.0 **** 0.06
29135 H 103.3150725947915 21.557513031139784 39.27845779824028 H 0.0 **** 0.06
29136 C 143.42471414871363 26.287930102022266 4.755614260260572 C 0.0 **** -0.24
29137 H 144.50446499891854 26.389439345080305 4.648147292050908 H 0.0 **** 0.06
29138 H 143.1769486818353 25.246519687037257 4.96382050104468 H 0.0 **** 0.06
29139 H 142.93666986881732 26.599510844486232 3.832336731088155 H 0.0 **** 0.06
29140 H 143.0808688124394 26.914543580484803 5.5778746126852 H 0.0 **** 0.06
29141 C 154.74628590051714 144.56993157267132 83.78280535773463 C 0.0 **** -0.24
29142 H 154.38173284756414 145.09621355663873 84.6650952962868 H 0.0 **** 0.06
29143 H 155.73874006413888 144.16725822402998 83.98409390478713 H 0.0 **** 0.06
29144 H 154.7992122716385 145.2631021516695 82.94330042543889 H 0.0 **** 0.06
29145 H 154.06446385323898 143.75512967672537 83.53978119430174 H 0.0 **** 0.06
29146 C 113.42358539873297 111.59814896878646 100.46593932771759 C 0.0 **** -0.24
29147 H 113.82229160878231 111.62389656930796 99.45206675722247 H 0.0 **** 0.06
29148 H 114.00486290334064 112.2668818331997 101.1016279574784 H 0.0 **** 0.06
29149 H 113.48694744482592 110.5813457488697 100.85530250951129 H 0.0 **** 0.06
29150 H 112.38218282146241 111.91917018301095 100.45548823308081 H 0.0 **** 0.06
29151 C 135.71969371058492 101.85397168342686 167.12808222301044 C 0.0 **** -0.24
29152 H 136.18438936559443 102.7018525779553 167.63154933026948 H 0.0 **** 0.06
29153 H 135.5645246703089 101.04699586620717 167.84532613531215 H 0.0 **** 0.06
29154 H 136.3692041739747 101.5064156400156 166.32498376930138 H 0.0 **** 0.06
29155 H 134.75978430136138 102.16108195674167 166.71271203155385 H 0.0 **** 0.06
29156 C 169.42251110600444 134.9638085281209 113.15300017231843 C 0.0 **** -0.24
29157 H 170.28521188760556 135.0820669472169 113.80720384104868 H 0.0 **** 0.06
29158 H 168.5074879606833 135.11762812852 113.72686376149622 H 0.0 **** 0.06
29159 H 169.42159300999245 133.95909483499233 112.73048776637125 H 0.0 **** 0.06
29160 H 169.4733323296295 135.6967766818042 112.34763746943287 H 0.0 **** 0.06
29161 C 147.44139477209544 152.18815125569245 117.56163411145383 C 0.0 **** -0.24
29162 H 146.38261701998542 152.4036375033169 117.42244180600915 H 0.0 **** 0.06
29163 H 148.0333222768023 152.862923748221 116.94124458325732 H 0.0 **** 0.06
29164 H 147.64393509616787 151.15768648165877 117.27264465847855 H 0.0 **** 0.06
29165 H 147.70622363140035 152.33111841960599 118.6091532014238 H 0.0 **** 0.06
29166 C 160.2367316675087 127.13677404901037 136.87484486608503 C 0.0 **** -0.24
29167 H 161.32504475195358 127.09729265112199 136.9127132612375 H 0.0 **** 0.06
29168 H 159.82512764681704 126.25541969144848 137.36783963639098 H 0.0 **** 0.06
29169 H 159.9084859188379 127.15871060708889 135.83588159008795 H 0.0 **** 0.06
29170 H 159.88803471060575 128.03510361490498 137.38531586233825 H 0.0 **** 0.06
29171 C 72.28021816158912 126.59601072695921 42.56054193191389 C 0.0 **** -0.24
29172 H 71.68783054153175 125.89087401355818 43.14401971347348 H 0.0 **** 0.06
29173 H 73.33349832405764 126.32265288217383 42.621201347529734 H 0.0 **** 0.06
29174 H 72.14192419846256 127.60158750137231 42.957867135781385 H 0.0 **** 0.06
29175 H 71.95572003731468 126.56854821233804 41.52019633059453 H 0.0 **** 0.06
29176 C 130.69319670423243 130.92460666132908 70.62468084259359 C 0.0 **** -0.24
29177 H 130.01630845092245 130.7816762310591 69.7823742658504 H 0.0 **** 0.06
29178 H 131.72159777893933 130.7780142362893 70.2932112365699 H 0.0 **** 0.06
29179 H 130.4569575926197 130.20347405067673 71.40729890489001 H 0.0 **** 0.06
29180 H 130.57742122166871 131.93609810100352 71.01481454718498 H 0.0 **** 0.06
29181 C 169.43161682201907 150.21291298619178 73.82370362918826 C 0.0 **** -0.24
29182 H 169.76382398401788 151.13913045581438 73.35471131788404 H 0.0 **** 0.06
29183 H 168.80863701169523 150.44634172391287 74.68653752783776 H 0.0 **** 0.06
29184 H 170.2997940091699 149.63755913953827 74.1460691423723 H 0.0 **** 0.06
29185 H 168.8543685835593 149.6297315455207 73.10556221571468 H 0.0 **** 0.06
29186 C 161.44247132656076 105.4917478795021 136.8010364859373 C 0.0 **** -0.24
29187 H 160.57805815267773 106.12613553675206 136.6070227551679 H 0.0 **** 0.06
29188 H 161.10877572461746 104.5378141305822 137.2115494359319 H 0.0 **** 0.06
29189 H 162.10159174428998 105.98380403053235 137.51511502398967 H 0.0 **** 0.06
29190 H 161.98119270312392 105.31800820460674 135.86981311084708 H 0.0 **** 0.06
29191 C 31.342093044813964 164.35846119496074 50.15553197638425 C 0.0 **** -0.24
29192 H 31.787597124046926 163.51373059132672 49.628720293904394 H 0.0 **** 0.06
29193 H 32.09690863767372 164.83501535626476 50.78148545144417 H 0.0 **** 0.06
29194 H 30.521817626879 164.00445174479296 50.77976568716235 H 0.0 **** 0.06
29195 H 30.962856362189797 165.07836973328153 49.430686197668976 H 0.0 **** 0.06
29196 C 9.847234553947374 89.77487629768538 4.702744528620087 C 0.0 **** -0.24
29197 H 10.303917271788237 90.76399358410342 4.668905605942484 H 0.0 **** 0.06
29198 H 10.518794114827074 89.04848988111792 4.244259266495305 H 0.0 **** 0.06
29199 H 8.903808352095666 89.79266857794237 4.156546178025394 H 0.0 **** 0.06
29200 H 9.66187956775758 89.49577321402116 5.739625988851458 H 0.0 **** 0.06
29201 C 72.55641439156682 63.12472652049519 8.045795368337814 C 0.0 **** -0.24
29202 H 72.57933236599865 62.10161485183346 8.421560555016889 H 0.0 **** 0.06
29203 H 71.52498135814994 63.414208141926 7.844471063400356 H 0.0 **** 0.06
29204 H 73.13823566098142 63.18711007623551 7.126176160415589 H 0.0 **** 0.06
29205 H 72.98332167721969 63.79427257381394 8.792004733399231 H 0.0 **** 0.06
29206 C 88.64827027147565 155.01725997371676 141.10783556908032 C 0.0 **** -0.24
29207 H 88.53168266024645 154.2147404956909 141.8350576507426 H 0.0 **** 0.06
29208 H 87.67167008073234 155.44621700594817 140.8805402685923 H 0.0 **** 0.06
29209 H 89.09146350385545 154.61923371108338 140.1949231733476 H 0.0 **** 0.06
29210 H 89.29748317884619 155.78970647439655 141.5200129432741 H 0.0 **** 0.06
29211 C 75.05187439975252 102.3309204938511 40.62864679487244 C 0.0 **** -0.24
29212 H 73.9880571754602 102.24138385837676 40.40478224266542 H 0.0 **** 0.06
29213 H 75.52298331383886 102.98461922693016 39.89546366172999 H 0.0 **** 0.06
29214 H 75.5149817732109 101.34510108398302 40.58924083016511 H 0.0 **** 0.06
29215 H 75.17859242745023 102.75214630826562 41.62632638307407 H 0.0 **** 0.06
29216 C 38.3020716060405 166.43454081973556 64.95003540623604 C 0.0 **** -0.24
29217 H 39.089495235685575 166.71435664251885 64.25112033138141 H 0.0 **** 0.06
29218 H 38.398507495328545 167.0247177871644 65.86107571129747 H 0.0 **** 0.06
29219 H 38.39066588528965 165.3749181860639 65.19196337683987 H 0.0 **** 0.06
29220 H 37.3292554667085 166.6235137491369 64.49532099385326 H 0.0 **** 0.06
29221 C 151.55251402322483 114.94824742313503 131.4193887564386 C 0.0 **** -0.24
29222 H 150.94064090234252 114.25873064963051 130.8368459528072 H 0.0 **** 0.06
29223 H 151.15526595360814 115.9582024239684 131.31969400849522 H 0.0 **** 0.06
29224 H 152.57772773293647 114.92227510288222 131.05201778069073 H 0.0 **** 0.06
29225 H 151.53425417097938 114.65153667018004 132.46848385039334 H 0.0 **** 0.06
29226 C 53.42356987712792 51.33450334094053 87.16070686345266 C 0.0 **** -0.24
29227 H 52.43460469062914 50.97303470874408 87.44378016404977 H 0.0 **** 0.06
29228 H 53.34371109506492 52.357650351971415 86.79276669535074 H 0.0 **** 0.06
29229 H 53.83313556144964 50.696292934624466 86.37720342648173 H 0.0 **** 0.06
29230 H 54.08065839586055 51.310684543719105 88.02948848207829 H 0.0 **** 0.06
29231 C 47.94101085509898 102.16616821475668 111.70682308764475 C 0.0 **** -0.24
29232 H 47.93991253935597 103.2538956533244 111.77704414979058 H 0.0 **** 0.06
29233 H 48.901350228402436 101.82956365072135 111.31552670848254 H 0.0 **** 0.06
29234 H 47.14330847068723 101.84503422595637 111.03726723289736 H 0.0 **** 0.06
29235 H 47.78058258058006 101.73754535477383 112.69575098135533 H 0.0 **** 0.06
29236 C 125.1981670415579 47.60645826099872 4.972046550133115 C 0.0 **** -0.24
29237 H 124.84279302627914 48.62375751527678 4.808428954728868 H 0.0 **** 0.06
29238 H 125.1519813051091 47.373161454514744 6.0355909315537986 H 0.0 **** 0.06
29239 H 126.22778097936626 47.522675283573236 4.625137744938229 H 0.0 **** 0.06
29240 H 124.57010659162617 46.90868789181479 4.418983494460065 H 0.0 **** 0.06
29241 C 45.614142113969464 3.604400059760991 158.93726279287904 C 0.0 **** -0.24
29242 H 45.33345980147041 2.8432339158714512 159.66552492809444 H 0.0 **** 0.06
29243 H 45.79571101648314 3.1338752005901824 157.97072552603095 H 0.0 **** 0.06
29244 H 46.52016854163021 4.11005815916414 159.27132294584288 H 0.0 **** 0.06
29245 H 44.80671357600805 4.331161855697729 158.84192830768512 H 0.0 **** 0.06
29246 C 27.103215877953204 99.18456866016766 116.29014048407856 C 0.0 **** -0.24
29247 H 27.403063938510535 98.2031364864805 115.92360645257594 H 0.0 **** 0.06
29248 H 26.092153643365748 99.40680171529078 115.94932997487217 H 0.0 **** 0.06
29249 H 27.789631598438817 99.94006576597565 115.90865424677088 H 0.0 **** 0.06
29250 H 27.12879435259361 99.18838641522558 117.38014524108735 H 0.0 **** 0.06
29251 C 146.56042707438834 170.53332147423367 148.91054879127515 C 0.0 **** -0.24
29252 H 147.517723464464 170.0222842584397 149.01679281175797 H 0.0 **** 0.06
29253 H 145.7953037458435 169.81497546825014 148.6190141517747 H 0.0 **** 0.06
29254 H 146.64558806081004 171.30596911328342 148.14521979710977 H 0.0 **** 0.06
29255 H 146.28654840162773 170.99201646635376 149.86006315699348 H 0.0 **** 0.06
29256 C 77.9530910152844 96.26390546019974 93.31687580443318 C 0.0 **** -0.24
29257 H 78.65690068743714 95.90010394008425 92.56797354313233 H 0.0 **** 0.06
29258 H 77.48511674396215 97.18164949298546 92.95946542175218 H 0.0 **** 0.06
29259 H 78.4839918480369 96.46461406613935 94.24663410854345 H 0.0 **** 0.06
29260 H 77.18584511096729 95.50938339690202 93.49103770871315 H 0.0 **** 0.06
29261 C 111.4600516247138 105.34535499645773 18.768152906258848 C 0.0 **** -0.24
29262 H 111.51686415106747 104.73417635611582 17.867691259451277 H 0.0 **** 0.06
29263 H 112.2205776793956 106.12544795761852 18.726292498630016 H 0.0 **** 0.06
29264 H 111.62914109336617 104.7182871635892 19.642841899911673 H 0.0 **** 0.06
29265 H 110.4731490596701 105.80232867499484 18.834609994315173 H 0.0 **** 0.06
29266 C 96.4291723739857 118.16217583279087 47.80838037462081 C 0.0 **** -0.24
29267 H 96.84511881126409 118.76254683763287 48.61834360948757 H 0.0 **** 0.06
29268 H 96.1371584037854 117.18502984749571 48.19485131425296 H 0.0 **** 0.06
29269 H 97.17854761929527 118.03631072793053 47.02812858902604 H 0.0 **** 0.06
29270 H 95.55475681229075 118.66626083065526 47.394970205924835 H 0.0 **** 0.06
29271 C 30.393337079744157 26.505077833536404 46.14104472526358 C 0.0 **** -0.24
29272 H 31.027639703318272 26.24310182291859 46.98853511905817 H 0.0 **** 0.06
29273 H 30.539102871028746 27.555132525721802 45.88867070274583 H 0.0 **** 0.06
29274 H 29.349678582568856 26.33469760168093 46.40355125207857 H 0.0 **** 0.06
29275 H 30.65851723533393 25.885487423221313 45.28479746357658 H 0.0 **** 0.06
29276 C 62.53777268162001 170.7275448272643 91.33254626477942 C 0.0 **** -0.24
29277 H 61.542288476240486 170.96438984901573 91.70742865178414 H 0.0 **** 0.06
29278 H 62.960307528492024 169.90984070424304 91.91674782723706 H 0.0 **** 0.06
29279 H 63.17718018926048 171.60557444232086 91.42054741855681 H 0.0 **** 0.06
29280 H 62.47034042060113 170.43021352748298 90.28530215893048 H 0.0 **** 0.06
29281 C 15.390639572448201 44.27586065988187 140.86115763405058 C 0.0 **** -0.24
29282 H 15.092367531476405 43.52854451918141 140.12658664985292 H 0.0 **** 0.06
29283 H 16.046279840020034 43.8146885654304 141.60176981744397 H 0.0 **** 0.06
29284 H 14.504942415163768 44.672924020695476 141.3564670321808 H 0.0 **** 0.06
29285 H 15.920705759290733 45.08607760962133 140.3610411464426 H 0.0 **** 0.06
29286 C 50.457177867739006 47.11614641800321 68.3543214435827 C 0.0 **** -0.24
29287 H 50.4264892712456 46.06396870912174 68.07175736715962 H 0.0 **** 0.06
29288 H 49.80487368083976 47.68885397312964 67.69568234159755 H 0.0 **** 0.06
29289 H 51.47871134250522 47.48549199234115 68.26591113767724 H 0.0 **** 0.06
29290 H 50.120745171643904 47.22466553048075 69.38534172681523 H 0.0 **** 0.06
29291 C 172.70660241984197 94.8217832992008 75.8682880310808 C 0.0 **** -0.24
29292 H 172.15738846817442 95.11206704732297 74.97311065095644 H 0.0 **** 0.06
29293 H 172.35359973968167 93.84964045850083 76.21210569201196 H 0.0 **** 0.06
29294 H 172.54603373967407 95.56438056629545 76.64959857820486 H 0.0 **** 0.06
29295 H 173.77045758832318 94.76143006334144 75.63749620065624 H 0.0 **** 0.06
29296 C 28.417526226438824 123.77494472290056 169.01898827758288 C 0.0 **** -0.24
29297 H 28.8182374581162 123.83782824146138 170.02998546652415 H 0.0 **** 0.06
29298 H 27.433065594951863 124.24363891326536 168.98817832759653 H 0.0 **** 0.06
29299 H 28.33054176924513 122.7285547037223 168.72596298133124 H 0.0 **** 0.06
29300 H 29.08672061908547 124.29068790519187 168.33016389861547 H 0.0 **** 0.06
29301 C 4.6268603143407745 53.59227489163672 58.34929023290749 C 0.0 **** -0.24
29302 H 4.693753449821116 54.67997432211291 58.37010944212747 H 0.0 **** 0.06
29303 H 4.012542240908431 53.25064264429625 59.182694644273084 H 0.0 **** 0.06
29304 H 5.626140396310291 53.16541020171604 58.43413736417881 H 0.0 **** 0.06
29305 H 4.173679867159677 53.27494301771654 57.409356623837866 H 0.0 **** 0.06
29306 C 89.68492543604715 45.71346287988649 151.7968897426187 C 0.0 **** -0.24
29307 H 89.06840119636462 45.80585834373596 150.90299930563054 H 0.0 **** 0.06
29308 H 89.68198193748572 46.658508107816715 152.3405477732054 H 0.0 **** 0.06
29309 H 90.70583270268067 45.46208284547794 151.50989216751117 H 0.0 **** 0.06
29310 H 89.28363699336147 44.92590095079203 152.43577002591286 H 0.0 **** 0.06
29311 C 43.96193825258919 147.7217571534647 107.18135961208336 C 0.0 **** -0.24
29312 H 43.94972515394849 146.6438100508757 107.340000862896 H 0.0 **** 0.06
29313 H 43.65598879827823 147.94202810706992 106.15823848253297 H 0.0 **** 0.06
29314 H 44.969229000172305 148.10211585612421 107.35027315449136 H 0.0 **** 0.06
29315 H 43.27182519814079 148.19904599265936 107.87709700602002 H 0.0 **** 0.06
29316 C 121.96565230186454 165.93482466112386 52.94445678527728 C 0.0 **** -0.24
29317 H 122.16909638864405 165.50156445917008 51.96543111053427 H 0.0 **** 0.06
29318 H 121.48128480076173 166.90346801056683 52.81880096026788 H 0.0 **** 0.06
29319 H 122.90327654789087 166.06473175250085 53.485490170089065 H 0.0 **** 0.06
29320 H 121.31059726964375 165.26967052035803 53.506295759824866 H 0.0 **** 0.06
29321 C 39.32997436083501 19.747468432512164 53.95051758674391 C 0.0 **** -0.24
29322 H 39.360385279987 18.67161390848409 54.12031269692997 H 0.0 **** 0.06
29323 H 39.7312856354708 20.263844999194568 54.82329174099878 H 0.0 **** 0.06
29324 H 38.29941536849704 20.059454404379807 53.78483395335307 H 0.0 **** 0.06
29325 H 39.93036355433941 19.993362724814276 53.074650589098425 H 0.0 **** 0.06
29326 C 0.11617792061727528 158.57752485564825 158.1386754538014 C 0.0 **** -0.24
29327 H 0.4068356433078577 159.176332124786 159.0021522298743 H 0.0 **** 0.06
29328 H 0.9632232840428685 158.48762070172293 157.45793790913606 H 0.0 **** 0.06
29329 H -0.7150176387907834 159.06066421160645 157.6243384915836 H 0.0 **** 0.06
29330 H -0.18979918249195293 157.58547383145378 158.47112089068324 H 0.0 **** 0.06
29331 C 60.42210886738664 125.80581637740968 114.92352007826383 C 0.0 **** -0.24
29332 H 60.8446822835744 125.06519102974389 114.24463497465575 H 0.0 **** 0.06
29333 H 60.9644544924858 125.78176107032272 115.86971974190189 H 0.0 **** 0.06
29334 H 59.37087762298518 125.57788788452146 115.10064621013885 H 0.0 **** 0.06
29335 H 60.509984402095284 126.79779792700057 114.47948212549235 H 0.0 **** 0.06
29336 C 52.05169705445839 158.14603410125832 89.38223380547173 C 0.0 **** -0.24
29337 H 52.05720605765811 159.16334716641742 89.77480735321647 H 0.0 **** 0.06
29338 H 53.043240406084536 157.89926888042638 89.00246559000804 H 0.0 **** 0.06
29339 H 51.32456731644251 158.0725719738022 88.57416275862624 H 0.0 **** 0.06
29340 H 51.78301847898757 157.45105677932278 90.17758437009587 H 0.0 **** 0.06
29341 C 138.10069377852454 90.40627216711343 12.75389743975721 C 0.0 **** -0.24
29342 H 138.99613397665485 90.81176863613288 13.226156566499967 H 0.0 **** 0.06
29343 H 137.21815347634993 90.88324908908146 13.180732102226926 H 0.0 **** 0.06
29344 H 138.05418986472824 89.33185014895129 12.927502907104255 H 0.0 **** 0.06
29345 H 138.13644802496478 90.60049146577663 11.681668127108459 H 0.0 **** 0.06
29346 C 123.96390152903729 80.20320765581234 99.99934225021747 C 0.0 **** -0.24
29347 H 124.31441524711133 79.21282382391105 100.28879892622462 H 0.0 **** 0.06
29348 H 123.06489178540059 80.10677916399638 99.39034945893133 H 0.0 **** 0.06
29349 H 124.7391979479772 80.70962952009401 99.42442004449259 H 0.0 **** 0.06
29350 H 123.73710113566025 80.78359811524778 100.89380057122162 H 0.0 **** 0.06
29351 C 114.04215682677795 70.97246878391283 138.61129624983636 C 0.0 **** -0.24
29352 H 114.5742113618216 71.33011959723267 139.492317831381 H 0.0 **** 0.06
29353 H 114.7606903646003 70.69637994154877 137.83913842331285 H 0.0 **** 0.06
29354 H 113.3895765873238 71.76127019003643 138.23577849372455 H 0.0 **** 0.06
29355 H 113.44223537279169 70.1015252899783 138.8779906546264 H 0.0 **** 0.06
29356 C 48.760433001995736 51.64340322054092 33.79962933927936 C 0.0 **** -0.24
29357 H 49.13157915694585 52.65185555727672 33.6180017247199 H 0.0 **** 0.06
29358 H 49.20136558869865 51.254526138864364 34.718269799253804 H 0.0 **** 0.06
29359 H 49.03483592621929 50.99984226663146 32.964409913225126 H 0.0 **** 0.06
29360 H 47.67568930815759 51.66852982574163 33.898659282264234 H 0.0 **** 0.06
29361 C 16.112406398075677 38.88631239395076 9.307645281142449 C 0.0 **** -0.24
29362 H 15.641185447008809 37.933513737103056 9.547748808085558 H 0.0 **** 0.06
29363 H 15.54552612392638 39.383012001799386 8.519676079148311 H 0.0 **** 0.06
29364 H 17.13287257392517 38.71238247296009 8.968453136339086 H 0.0 **** 0.06
29365 H 16.12861286983059 39.51729702586627 10.197161988484702 H 0.0 **** 0.06
29366 C 11.212337116634792 135.3174824669164 107.18841283274239 C 0.0 **** -0.24
29367 H 10.282760617087362 134.9845640984034 106.72744422438888 H 0.0 **** 0.06
29368 H 11.021650209886161 136.21061717096978 107.78608513201121 H 0.0 **** 0.06
29369 H 11.941027085076769 135.54881440628176 106.41203752062268 H 0.0 **** 0.06
29370 H 11.60236652164275 134.5270429653747 107.82962936552661 H 0.0 **** 0.06
29371 C 124.93214583706703 51.03846849728774 100.85168186541264 C 0.0 **** -0.24
29372 H 125.08386641215085 50.08922732745506 101.36479416591982 H 0.0 **** 0.06
29373 H 125.35098764287983 51.84631733767493 101.45136425272153 H 0.0 **** 0.06
29374 H 123.86480638947512 51.20677918206418 100.7088491045576 H 0.0 **** 0.06
29375 H 125.42833420435008 51.01033348269516 99.88130373044174 H 0.0 **** 0.06
29376 C 43.9974813076188 145.53323515262196 9.219449835266573 C 0.0 **** -0.24
29377 H 43.08551562368265 145.8884406884952 8.739700107695796 H 0.0 **** 0.06
29378 H 44.076171165893726 145.96807383461154 10.215770771065934 H 0.0 **** 0.06
29379 H 44.86029252470334 145.83162855401662 8.623163500642193 H 0.0 **** 0.06
29380 H 43.96754699314734 144.44743910410753 9.297199440952653 H 0.0 **** 0.06
29381 C 128.162781149674 12.402265395548426 12.784782741660692 C 0.0 **** -0.24
29382 H 128.6353737569507 12.222276480446311 11.819578938199143 H 0.0 **** 0.06
29383 H 127.57204627316787 11.529733947968595 13.066845522196289 H 0.0 **** 0.06
29384 H 127.5124428619423 13.273373705201863 12.713595846524122 H 0.0 **** 0.06
29385 H 128.9299951796851 12.581001968087577 13.536821969118762 H 0.0 **** 0.06
29386 C 127.65500580816777 77.54987975226845 122.47112687016818 C 0.0 **** -0.24
29387 H 127.92658151240371 77.27863469872119 123.49139249610573 H 0.0 **** 0.06
29388 H 126.58636874471227 77.7636439437751 122.4250950393438 H 0.0 **** 0.06
29389 H 127.88881776105677 76.72309736765192 121.80075307054327 H 0.0 **** 0.06
29390 H 128.21657752936792 78.43334432145815 122.16800687375687 H 0.0 **** 0.06
29391 C 171.95931708455345 25.948426143644667 85.5673786089889 C 0.0 **** -0.24
29392 H 172.94121346738677 26.41471954744847 85.65133784814722 H 0.0 **** 0.06
29393 H 171.45760179221935 26.31701400284075 84.67212614904433 H 0.0 **** 0.06
29394 H 171.3642204426536 26.194057528055737 86.4461250768642 H 0.0 **** 0.06
29395 H 172.07628556726755 24.866072274224223 85.49874399577503 H 0.0 **** 0.06
29396 C 82.16195355007437 140.8085736290418 92.59647099813662 C 0.0 **** -0.24
29397 H 82.91313442776793 140.1560138749574 92.1513741046547 H 0.0 **** 0.06
29398 H 81.4993857550717 140.2196461490853 93.23132416764852 H 0.0 **** 0.06
29399 H 81.58052564143945 141.28444817851053 91.80705401463396 H 0.0 **** 0.06
29400 H 82.65519913905779 141.57284091203906 93.19619799037335 H 0.0 **** 0.06
29401 C 118.80404721581041 121.22950310251744 34.94407772678505 C 0.0 **** -0.24
29402 H 119.04933406713758 121.25242135373591 33.88224944441737 H 0.0 **** 0.06
29403 H 117.73416402420713 121.0594971337197 35.065466017302526 H 0.0 **** 0.06
29404 H 119.07481032918605 122.18138250629687 35.40001971746577 H 0.0 **** 0.06
29405 H 119.35755942415275 120.42426109958336 35.42727410673936 H 0.0 **** 0.06
29406 C 47.9581226222363 121.75574382539571 104.98241694400514 C 0.0 **** -0.24
29407 H 48.59082889478421 120.87652049685875 105.09666775939422 H 0.0 **** 0.06
29408 H 47.18371853741924 121.55277529813773 104.24275129480492 H 0.0 **** 0.06
29409 H 48.56454853682368 122.59930388167831 104.6514271422563 H 0.0 **** 0.06
29410 H 47.49284341950636 121.99558976405595 105.93835018765816 H 0.0 **** 0.06
29411 C 160.86107484751088 87.0348244426077 81.90767610020151 C 0.0 **** -0.24
29412 H 159.91706505271264 86.69640766390732 82.33348679206911 H 0.0 **** 0.06
29413 H 161.67787357634015 86.44117096962995 82.31764385894982 H 0.0 **** 0.06
29414 H 161.0152180248919 88.08516800395012 82.15494208974013 H 0.0 **** 0.06
29415 H 160.83414273609895 86.91655113294343 80.82463166004689 H 0.0 **** 0.06
29416 C 92.02638933390193 31.419386985484152 62.190505861133374 C 0.0 **** -0.24
29417 H 91.98003774671338 30.351208351508603 61.97523124521604 H 0.0 **** 0.06
29418 H 91.41935126933213 31.962116267623088 61.464783500474724 H 0.0 **** 0.06
29419 H 93.06092457922597 31.757409207224555 62.12574471574281 H 0.0 **** 0.06
29420 H 91.6452124819885 31.603784504952557 63.19491461672598 H 0.0 **** 0.06
29421 C 143.11013867826733 88.97311686128467 159.7281297229741 C 0.0 **** -0.24
29422 H 142.15263945637406 88.46238024541856 159.6283623908692 H 0.0 **** 0.06
29423 H 143.1032888369963 89.58612217404264 160.62982300383564 H 0.0 **** 0.06
29424 H 143.27429141688899 89.60883713175303 158.85700582102248 H 0.0 **** 0.06
29425 H 143.91034244859577 88.2365427830525 159.79559615285874 H 0.0 **** 0.06
29426 C 78.53778644915508 54.680520072674256 59.444193636314665 C 0.0 **** -0.24
29427 H 79.20986688168472 54.67920772588974 60.30245254862072 H 0.0 **** 0.06
29428 H 78.28950778672794 53.6541994292387 59.1758844938674 H 0.0 **** 0.06
29429 H 79.02592580345924 55.16950090450308 58.60102585478185 H 0.0 **** 0.06
29430 H 77.62528923923969 55.221213058514365 59.6981368596057 H 0.0 **** 0.06
29431 C 30.656799632525747 103.49896045466949 138.78646782664515 C 0.0 **** -0.24
29432 H 30.080089597088772 104.00480720698368 139.55987053029327 H 0.0 **** 0.06
29433 H 30.126088246744644 102.60157600740894 138.46540269641852 H 0.0 **** 0.06
29434 H 31.63308389715604 103.22093234715288 139.18398839325806 H 0.0 **** 0.06
29435 H 30.78819909011463 104.16710656383458 137.9349021126641 H 0.0 **** 0.06
29436 C 45.996794048700394 14.428876398099192 118.5458461671252 C 0.0 **** -0.24
29437 H 45.30366268093212 15.264674002228276 118.4465210546768 H 0.0 **** 0.06
29438 H 46.72274075110033 14.649281833301217 119.32824632301964 H 0.0 **** 0.06
29439 H 46.517801026528105 14.275493544240334 117.60048346927255 H 0.0 **** 0.06
29440 H 45.44314418018865 13.527174636274196 118.80596136687834 H 0.0 **** 0.06
29441 C 47.12041293251873 147.68481877615045 22.298179019022612 C 0.0 **** -0.24
29442 H 47.17188982522016 148.56686562669697 22.936366815399325 H 0.0 **** 0.06
29443 H 48.104084801412654 147.21776879029812 22.242061533132222 H 0.0 **** 0.06
29444 H 46.79945325452471 147.97842605210337 21.29823758794798 H 0.0 **** 0.06
29445 H 46.404426957793575 146.97573314148806 22.71480937957753 H 0.0 **** 0.06
29446 C 57.29901188851605 78.07583375145455 38.65982366444581 C 0.0 **** -0.24
29447 H 56.87248605819755 77.11816524687322 38.955730566785036 H 0.0 **** 0.06
29448 H 57.46715389389429 78.68740680480491 39.54714710846224 H 0.0 **** 0.06
29449 H 56.609668008806636 78.5889232454793 37.99026385806394 H 0.0 **** 0.06
29450 H 58.246910730745 77.90994263148971 38.14833359248473 H 0.0 **** 0.06
29451 C 148.3375829767835 97.49674133965351 74.20548526051302 C 0.0 **** -0.24
29452 H 149.38968047570896 97.6970728815154 74.4020463029241 H 0.0 **** 0.06
29453 H 147.7997626088081 97.41977208467245 75.1504170938867 H 0.0 **** 0.06
29454 H 148.24229062856114 96.56129541868395 73.6552140093927 H 0.0 **** 0.06
29455 H 147.91710223537297 98.31074520665925 73.61398980970951 H 0.0 **** 0.06
29456 C 62.062874676809486 150.96985733667515 36.34276326900181 C 0.0 **** -0.24
29457 H 61.418675118893475 151.01521001532393 35.46519092243368 H 0.0 **** 0.06
29458 H 61.559851819537926 151.4418230819728 37.187341005551104 H 0.0 **** 0.06
29459 H 62.99556948823022 151.4950269747542 36.136173256226414 H 0.0 **** 0.06
29460 H 62.27724341931332 149.92928051523154 36.583497701431 H 0.0 **** 0.06
29461 C 73.52145817424878 103.05264841100438 29.756005648274538 C 0.0 **** -0.24
29462 H 74.46327753157998 103.25316778775831 29.24465793913778 H 0.0 **** 0.06
29463 H 72.96853625685054 103.98470057579382 29.87628583358918 H 0.0 **** 0.06
29464 H 73.7244721699666 102.61982255068799 30.735011902892396 H 0.0 **** 0.06
29465 H 72.92979241253943 102.35263361455893 29.165644648108042 H 0.0 **** 0.06
29466 C 55.72254742266395 105.1105111078347 36.344306193032736 C 0.0 **** -0.24
29467 H 55.58693091670247 104.68910931004504 35.34782242655449 H 0.0 **** 0.06
29468 H 55.69318088702754 106.19822216180575 36.285175514676624 H 0.0 **** 0.06
29469 H 56.684630888290386 104.79314474919883 36.744743634780676 H 0.0 **** 0.06
29470 H 54.92299400200844 104.76001482608976 36.99712306982538 H 0.0 **** 0.06
29471 C 155.1416866059359 44.1311275889251 41.3519174219152 C 0.0 **** -0.24
29472 H 155.11087539839332 43.877515224133845 42.41160116039862 H 0.0 **** 0.06
29473 H 155.4961380958544 43.271503022412105 40.783230400819036 H 0.0 **** 0.06
29474 H 155.81865304592725 44.97146201000578 41.199029629709116 H 0.0 **** 0.06
29475 H 154.1418000051438 44.40360024430018 41.014353177978364 H 0.0 **** 0.06
29476 C 96.82111592072476 171.58569161457132 88.46386667118935 C 0.0 **** -0.24
29477 H 96.7131222019913 172.0114398503557 87.46572839808715 H 0.0 **** 0.06
29478 H 95.8701970519243 171.15845380455983 88.78112890500732 H 0.0 **** 0.06
29479 H 97.11870071327763 172.36859759293733 89.1620240518663 H 0.0 **** 0.06
29480 H 97.58319141159046 170.80681965947014 88.44560199190269 H 0.0 **** 0.06
29481 C 129.99033995571423 23.493675164464264 45.14159799027898 C 0.0 **** -0.24
29482 H 130.19389264606517 23.47250714137033 46.213098085895766 H 0.0 **** 0.06
29483 H 130.9301380554548 23.572180529971547 44.59530995610942 H 0.0 **** 0.06
29484 H 129.360798574913 24.351928375240618 44.909070077973155 H 0.0 **** 0.06
29485 H 129.47675432729582 22.576856572207816 44.85244119612648 H 0.0 **** 0.06
29486 C 8.059438191116897 3.0828578827748743 62.43897238184741 C 0.0 **** -0.24
29487 H 8.511231524653226 3.800726234564678 63.12347730907865 H 0.0 **** 0.06
29488 H 6.97876759422229 3.074839251479318 62.581260642648985 H 0.0 **** 0.06
29489 H 8.459503726497957 2.0884708421754112 62.64022148373037 H 0.0 **** 0.06
29490 H 8.2893845479648 3.366639939751053 61.41199886633578 H 0.0 **** 0.06
29491 C 104.17025994836868 2.467170262846878 127.96607977711182 C 0.0 **** -0.24
29492 H 104.03409614822644 2.7154439569329156 129.0181015186311 H 0.0 **** 0.06
29493 H 105.11020530857223 2.8899753725491166 127.61112520495229 H 0.0 **** 0.06
29494 H 103.34370271998856 2.879854944973374 127.38625244838761 H 0.0 **** 0.06
29495 H 104.19026621610178 1.3843432550578427 127.84816637838424 H 0.0 **** 0.06
29496 C 158.88864508451633 63.82140290032993 31.833829414394472 C 0.0 **** -0.24
29497 H 158.14580342612658 64.47336046927069 32.29352255775291 H 0.0 **** 0.06
29498 H 159.8227072711686 63.88520496246025 32.39312213581286 H 0.0 **** 0.06
29499 H 159.05921288015648 64.13538635609919 30.804229398897235 H 0.0 **** 0.06
29500 H 158.52700009514203 62.79340142612716 31.846160075593616 H 0.0 **** 0.06
29501 C 123.3229219474901 83.31419397154431 32.50282765896924 C 0.0 **** -0.24
29502 H 124.38131979392526 83.39408716586426 32.74734803244945 H 0.0 **** 0.06
29503 H 123.04990156636615 82.26330917689471 32.40921039232529 H 0.0 **** 0.06
29504 H 123.12908712697154 83.82610429209355 31.559328258371806 H 0.0 **** 0.06
29505 H 122.7310955322194 83.77471451753948 33.293736313332374 H 0.0 **** 0.06
29506 C 73.66953454325392 155.67818888984206 101.56116664734884 C 0.0 **** -0.24
29507 H 72.8751639489708 156.22929688559998 101.0579604102835 H 0.0 **** 0.06
29508 H 73.50011848708675 154.60785826350516 101.4413636803994 H 0.0 **** 0.06
29509 H 73.6719457236835 155.92994754088778 102.62114538320625 H 0.0 **** 0.06
29510 H 74.63063773714646 155.94494962500082 101.12209201391309 H 0.0 **** 0.06
29511 C 143.3588375515925 158.9882662978335 23.097015094494623 C 0.0 **** -0.24
29512 H 144.25172976896337 159.27261797867897 23.65411275653281 H 0.0 **** 0.06
29513 H 142.4861563209941 159.07114864704747 23.745518136883447 H 0.0 **** 0.06
29514 H 143.45956065456875 157.95905242149047 22.750590679157654 H 0.0 **** 0.06
29515 H 143.2398116459159 159.64970775038887 22.239277253641887 H 0.0 **** 0.06
29516 C 163.611626455358 158.399696791517 124.04989507891878 C 0.0 **** -0.24
29517 H 163.96542403348738 159.08355779139606 123.27763565173396 H 0.0 **** 0.06
29518 H 164.4321727634548 157.75758967219946 124.37022052515329 H 0.0 **** 0.06
29519 H 162.8045401887725 157.7867163354665 123.64911971281103 H 0.0 **** 0.06
29520 H 163.2445342686074 158.97314422314193 124.9015843291316 H 0.0 **** 0.06
29521 C 20.87883670293286 128.13647080665964 124.84732861592693 C 0.0 **** -0.24
29522 H 21.325928629761734 128.2797769468655 123.86375841671395 H 0.0 **** 0.06
29523 H 21.61007700914206 128.38336364142694 125.61736611005443 H 0.0 **** 0.06
29524 H 20.569891547630164 127.09752744323879 124.95825533577934 H 0.0 **** 0.06
29525 H 20.009928627809813 128.78701904212758 124.9483481396833 H 0.0 **** 0.06
29526 C 104.16101583084733 148.66508262005775 172.405428772575 C 0.0 **** -0.24
29527 H 105.06564253909687 148.66229874918818 171.79778583514354 H 0.0 **** 0.06
29528 H 104.38179149809915 148.2477613883052 173.3882335847818 H 0.0 **** 0.06
29529 H 103.39443655766794 148.06338937261313 171.9178381451463 H 0.0 **** 0.06
29530 H 103.8032186229133 149.68884841124571 172.51758029644446 H 0.0 **** 0.06
29531 C 100.43738813558517 155.74413068582393 33.30788312692866 C 0.0 **** -0.24
29532 H 99.60991553828984 156.15623732973248 33.8858912710736 H 0.0 **** 0.06
29533 H 101.37333450393197 156.19382198614176 33.642037828506105 H 0.0 **** 0.06
29534 H 100.28576674444804 155.96119333430147 32.25150777335746 H 0.0 **** 0.06
29535 H 100.47926852159065 154.664436394761 33.4555160815144 H 0.0 **** 0.06
29536 C 125.77215346544688 26.72930427872739 37.0897905219299 C 0.0 **** -0.24
29537 H 124.93139829606409 27.02714625922654 36.463052863451026 H 0.0 **** 0.06
29538 H 126.1903115174656 25.79469122695628 36.71480186029129 H 0.0 **** 0.06
29539 H 125.4287062947964 26.589142333291882 38.1147870381688 H 0.0 **** 0.06
29540 H 126.53756500110964 27.504579500211975 37.065159635130954 H 0.0 **** 0.06
29541 C 164.27861171818344 49.70861120846247 76.86920547422383 C 0.0 **** -0.24
29542 H 163.59019723825153 50.008288480674366 76.07866563504592 H 0.0 **** 0.06
29543 H 165.29934009136497 49.95108037599972 76.57365095475978 H 0.0 **** 0.06
29544 H 164.1933745068583 48.634804900972256 77.03705310712775 H 0.0 **** 0.06
29545 H 164.02998779009974 50.24100783079257 77.78770380638778 H 0.0 **** 0.06
29546 C 20.688666578935546 56.95670293846365 102.51605481274942 C 0.0 **** -0.24
29547 H 21.331799260462013 56.33655586685586 101.89062041654427 H 0.0 **** 0.06
29548 H 21.291335422834855 57.71184509678943 103.02024501286465 H 0.0 **** 0.06
29549 H 20.19320495393761 56.330985582738606 103.25802431194478 H 0.0 **** 0.06
29550 H 19.938763789890935 57.44557436357047 101.89300925925164 H 0.0 **** 0.06
29551 C 70.89292237978307 25.661327756101095 13.870563554230209 C 0.0 **** -0.24
29552 H 71.26572173682175 24.95133850774777 13.132748487296489 H 0.0 **** 0.06
29553 H 71.24663725989303 25.37491867121915 14.861733491969005 H 0.0 **** 0.06
29554 H 69.80355557812182 25.65890624816027 13.858594497943159 H 0.0 **** 0.06
29555 H 71.25779273881597 26.65957969398343 13.629956283726543 H 0.0 **** 0.06
29556 C 128.47301298884673 39.27218888650164 128.4304944470147 C 0.0 **** -0.24
29557 H 128.47168639236742 40.345757560187465 128.61846178969788 H 0.0 **** 0.06
29558 H 128.02096040146756 38.75529025182911 129.27721308679455 H 0.0 **** 0.06
29559 H 129.4988462728051 38.9278858666118 128.29920968261635 H 0.0 **** 0.06
29560 H 127.89981043323183 39.06098470266595 127.52738934429868 H 0.0 **** 0.06
29561 C 162.58040394688763 11.473325120589067 114.89883442619637 C 0.0 **** -0.24
29562 H 162.21767099022242 12.47469386624482 115.13207172912556 H 0.0 **** 0.06
29563 H 163.44742838008113 11.545512661788706 114.24105344555281 H 0.0 **** 0.06
29564 H 161.79213640142882 10.90912746653271 114.39972573235005 H 0.0 **** 0.06
29565 H 162.86393969234024 10.966142573877619 115.82073437428383 H 0.0 **** 0.06
29566 C 30.854568764660485 88.29590226795024 57.336326761414995 C 0.0 **** -0.24
29567 H 31.13402909886389 89.21259981355712 56.81637413326787 H 0.0 **** 0.06
29568 H 30.0241234931774 88.50028729711423 58.01328808989952 H 0.0 **** 0.06
29569 H 31.706839216319395 87.92800097508292 57.90733192030329 H 0.0 **** 0.06
29570 H 30.552289844876668 87.5440267493989 56.60775773413707 H 0.0 **** 0.06
29571 C 66.69443194713295 130.74862721947284 43.51950101565036 C 0.0 **** -0.24
29572 H 66.51617851798451 129.71332542096104 43.80917336527959 H 0.0 **** 0.06
29573 H 66.39574475884723 131.41004586826568 44.333982798463964 H 0.0 **** 0.06
29574 H 66.11074831913555 130.9832094445562 42.628904132224434 H 0.0 **** 0.06
29575 H 67.7542962797412 130.88873544252112 43.30682175162089 H 0.0 **** 0.06
29576 C 35.7274383750899 13.232839650534501 121.17512389814522 C 0.0 **** -0.24
29577 H 34.93290009758968 13.59663379354081 121.8276374755325 H 0.0 **** 0.06
29578 H 35.504534912757535 13.506435963739193 120.14398652609566 H 0.0 **** 0.06
29579 H 35.79451865524172 12.147429680663357 121.25737141481716 H 0.0 **** 0.06
29580 H 36.675252246572796 13.679033488629386 121.47417920169457 H 0.0 **** 0.06
29581 C 2.4393935496970585 61.99525203195495 169.614055452107 C 0.0 **** -0.24
29582 H 1.8878015708120017 62.51312827193202 168.83061711919294 H 0.0 **** 0.06
29583 H 2.461576972858012 60.9263588375121 169.39715576425385 H 0.0 **** 0.06
29584 H 1.9510034636188038 62.16154454935857 170.57400602155468 H 0.0 **** 0.06
29585 H 3.4591784296857213 62.37857579345072 169.65474808110548 H 0.0 **** 0.06
29586 C 88.09470274238157 124.3159554271719 138.84131257435692 C 0.0 **** -0.24
29587 H 87.66114757291103 123.55535225604388 138.19107957820165 H 0.0 **** 0.06
29588 H 88.39014662971715 125.17899590863368 138.24421355644193 H 0.0 **** 0.06
29589 H 88.9693948064712 123.90631006384297 139.3470226388246 H 0.0 **** 0.06
29590 H 87.35660873631224 124.62156665010679 139.58253399156655 H 0.0 **** 0.06
29591 C 150.82216514513527 82.0071628030651 162.73628608361975 C 0.0 **** -0.24
29592 H 150.19300844893047 82.2178704071588 163.60150707441105 H 0.0 **** 0.06
29593 H 150.9459381729891 82.91684497343107 162.14845551327033 H 0.0 **** 0.06
29594 H 150.35104043502167 81.23995452020245 162.12281309308887 H 0.0 **** 0.06
29595 H 151.7973202774457 81.65630877146313 163.0732357628551 H 0.0 **** 0.06
29596 C 19.84809220370329 43.18354842911651 84.67568947126675 C 0.0 **** -0.24
29597 H 19.6821907610654 42.109149408653025 84.5907620423757 H 0.0 **** 0.06
29598 H 19.046416739270114 43.71621175694554 84.16265394004643 H 0.0 **** 0.06
29599 H 20.804406093456286 43.440132282864965 84.21932046442012 H 0.0 **** 0.06
29600 H 19.859020215421722 43.46755480903835 85.72745708285447 H 0.0 **** 0.06
29601 C 144.29370479762906 61.2660301766017 60.36522248136822 C 0.0 **** -0.24
29602 H 143.22054228996515 61.12948634865671 60.22930993767318 H 0.0 **** 0.06
29603 H 144.6048114716347 60.79369507631563 61.29734017404775 H 0.0 **** 0.06
29604 H 144.52179497778096 62.331080993774506 60.40270317104944 H 0.0 **** 0.06
29605 H 144.82537889525557 60.809527438124945 59.5307369691277 H 0.0 **** 0.06
29606 C 24.670387738528085 37.762228967503916 124.9384378109358 C 0.0 **** -0.24
29607 H 25.225797816427907 38.69776156814319 125.00752177368747 H 0.0 **** 0.06
29608 H 24.7737839508804 37.20919546088615 125.87219332399525 H 0.0 **** 0.06
29609 H 25.066087741905868 37.16552765197625 124.11665120327527 H 0.0 **** 0.06
29610 H 23.617460901262852 37.97794438993179 124.75848753434735 H 0.0 **** 0.06
29611 C 0.7280525861735896 14.032989810321261 25.60602864420872 C 0.0 **** -0.24
29612 H -0.2815893883147851 13.62321492181617 25.651248591217893 H 0.0 **** 0.06
29613 H 0.686463421819667 15.114301580170157 25.732592270693033 H 0.0 **** 0.06
29614 H 1.1723301769177965 13.795636365824635 24.639171901076054 H 0.0 **** 0.06
29615 H 1.3333749735178344 13.595924109557174 26.401281192103625 H 0.0 **** 0.06
29616 C 90.60127697760237 77.5508989646823 160.5568433543973 C 0.0 **** -0.24
29617 H 90.5486833606347 76.74202949332098 159.82828843737985 H 0.0 **** 0.06
29618 H 89.59472381401554 77.8077346853203 160.88815642126076 H 0.0 **** 0.06
29619 H 91.06591184037335 78.42386870633534 160.0978177829752 H 0.0 **** 0.06
29620 H 91.19466932492406 77.23073104823825 161.41271494844835 H 0.0 **** 0.06
29621 C 77.01605604478416 106.2128828286061 67.11484272101526 C 0.0 **** -0.24
29622 H 77.31819417516803 107.14601537689126 66.63966446543519 H 0.0 **** 0.06
29623 H 77.8733110922212 105.7702241045269 67.62315980104515 H 0.0 **** 0.06
29624 H 76.64577091407256 105.52320952252697 66.35768304130606 H 0.0 **** 0.06
29625 H 76.22811119240322 106.41464246447154 67.84112033338918 H 0.0 **** 0.06
29626 C 101.82781302684396 155.3157887131708 111.51224391044565 C 0.0 **** -0.24
29627 H 102.32487711836328 155.41290698997705 112.47699905587893 H 0.0 **** 0.06
29628 H 102.00222376251747 154.31660761376642 111.1118463096023 H 0.0 **** 0.06
29629 H 102.22606957784262 156.059112382588 110.82250787921299 H 0.0 **** 0.06
29630 H 100.75600482437218 155.47456313875273 111.6384504649755 H 0.0 **** 0.06
29631 C 96.00517874035253 12.717155178522553 34.587413926939945 C 0.0 **** -0.24
29632 H 96.42939414327176 13.20161745275611 33.70822409033326 H 0.0 **** 0.06
29633 H 96.38211118042798 13.20325720414818 35.48732389152322 H 0.0 **** 0.06
29634 H 96.28901148545387 11.66506657009554 34.595642022255035 H 0.0 **** 0.06
29635 H 94.91778061253407 12.799899110699478 34.55764824209143 H 0.0 **** 0.06
29636 C 82.01298339130113 117.61005183552743 23.975077155920673 C 0.0 **** -0.24
29637 H 80.97456541176246 117.82319583871015 24.22760220850006 H 0.0 **** 0.06
29638 H 82.51596039453835 117.17777134585106 24.840560789590455 H 0.0 **** 0.06
29639 H 82.51395689982877 118.53516825385091 23.687667382082168 H 0.0 **** 0.06
29640 H 82.04663597928914 116.90518523150303 23.144167553961466 H 0.0 **** 0.06
29641 C 41.045984696658536 21.47121178257359 171.08541396248327 C 0.0 **** -0.24
29642 H 41.96486510258319 20.893305318680547 170.9922631564707 H 0.0 **** 0.06
29643 H 40.1965595482921 20.791972907371985 171.1629811925341 H 0.0 **** 0.06
29644 H 40.924977892089146 22.104504667264052 170.2064329238544 H 0.0 **** 0.06
29645 H 41.096762850311165 22.093870364665747 171.9782532738323 H 0.0 **** 0.06
29646 C 57.086225314856506 137.1065821287088 60.58274693592659 C 0.0 **** -0.24
29647 H 57.04412425294919 136.39101289888794 61.403319502106385 H 0.0 **** 0.06
29648 H 56.26115738935991 137.81299073248266 60.673702890292574 H 0.0 **** 0.06
29649 H 57.00776613229354 136.57571785519616 59.633967474581624 H 0.0 **** 0.06
29650 H 58.03281726760764 137.6463413513994 60.61997407592669 H 0.0 **** 0.06
29651 C 121.96538126765074 160.70498102019383 106.76165040737948 C 0.0 **** -0.24
29652 H 122.57590363242983 159.80204443177303 106.77572691196133 H 0.0 **** 0.06
29653 H 122.30440537667539 161.3604596723424 105.96008721779012 H 0.0 **** 0.06
29654 H 122.05911212780828 161.2205350414435 107.71755352405086 H 0.0 **** 0.06
29655 H 120.92285300438417 160.4350917147073 106.59434004667156 H 0.0 **** 0.06
29656 C 4.844512838341757 92.90686560632241 11.149558367379683 C 0.0 **** -0.24
29657 H 4.025035689225888 93.13663671290692 11.830820163993934 H 0.0 **** 0.06
29658 H 5.28658114150528 91.94852764786992 11.422562332807928 H 0.0 **** 0.06
29659 H 5.600979546975054 93.68829462837019 11.214326865583303 H 0.0 **** 0.06
29660 H 4.463596248758904 92.85367672583305 10.129324717982001 H 0.0 **** 0.06
29661 C 81.86325705410677 162.57245088292726 16.930341763546863 C 0.0 **** -0.24
29662 H 81.40269437352764 161.67294406650066 17.33974219106986 H 0.0 **** 0.06
29663 H 82.18637796011812 163.21902325311524 17.74677134462513 H 0.0 **** 0.06
29664 H 81.13763785125771 163.1017042215746 16.3127821644118 H 0.0 **** 0.06
29665 H 82.72404611859825 162.29583380960148 16.322937187431535 H 0.0 **** 0.06
29666 C 121.53840806180102 71.44679036118475 12.467771110962815 C 0.0 **** -0.24
29667 H 120.48111989298806 71.53558063176013 12.718394760235554 H 0.0 **** 0.06
29668 H 121.79760572870364 72.1949952537377 11.719738257534296 H 0.0 **** 0.06
29669 H 121.73434720861388 70.45036176871974 12.069780986290183 H 0.0 **** 0.06
29670 H 122.13767899233136 71.60414797312626 13.364351340930291 H 0.0 **** 0.06
29671 C 6.347903509222988 66.02044164483607 155.76847811188924 C 0.0 **** -0.24
29672 H 5.419291021774484 66.58212588862463 155.66420031127512 H 0.0 **** 0.06
29673 H 6.117919641719197 64.97685112211788 155.9853754428466 H 0.0 **** 0.06
29674 H 6.937068758393934 66.44059925056284 156.5839418420756 H 0.0 **** 0.06
29675 H 6.915605137373518 66.0821027725155 154.84043127527076 H 0.0 **** 0.06
29676 C 70.73254820063013 49.11588056364178 34.65021743822973 C 0.0 **** -0.24
29677 H 71.6392358116533 49.46165439139696 35.14777673311923 H 0.0 **** 0.06
29678 H 70.93158696919487 48.97992462679099 33.586844616458876 H 0.0 **** 0.06
29679 H 69.94227921567646 49.85481874875569 34.7811657632958 H 0.0 **** 0.06
29680 H 70.41927348910671 48.167478005499134 35.085415895516235 H 0.0 **** 0.06
29681 C 148.94998662149646 42.779116201937455 172.15575809126557 C 0.0 **** -0.24
29682 H 147.9580597769567 43.23213751139039 172.15892711972933 H 0.0 **** 0.06
29683 H 149.70127096464745 43.551397965813834 171.99228673881896 H 0.0 **** 0.06
29684 H 149.0083083849592 42.03908259383313 171.35704848161967 H 0.0 **** 0.06
29685 H 149.1301237324879 42.29285009842479 173.11525854625992 H 0.0 **** 0.06
29686 C 103.05748913863698 44.131958197458275 166.59252884006406 C 0.0 **** -0.24
29687 H 102.7205475260765 45.0719079323692 166.1548314047538 H 0.0 **** 0.06
29688 H 103.88460117606388 44.3249024310099 167.27501280180311 H 0.0 **** 0.06
29689 H 103.3896750703847 43.46108924037307 165.79931349975334 H 0.0 **** 0.06
29690 H 102.23529610234883 43.66968652349962 167.13765420252446 H 0.0 **** 0.06
29691 C 86.08868555452528 52.617944883478174 11.101920131689432 C 0.0 **** -0.24
29692 H 85.06749348936208 52.39621669914921 11.412343343628038 H 0.0 **** 0.06
29693 H 86.50345952023162 51.75744855516035 10.57686126503119 H 0.0 **** 0.06
29694 H 86.69601579511557 52.83570978643024 11.980821507675138 H 0.0 **** 0.06
29695 H 86.08669786139278 53.48366482261275 10.439156041956167 H 0.0 **** 0.06
29696 C 83.56062280848768 94.0261951864845 121.03152125114292 C 0.0 **** -0.24
29697 H 83.8262758278608 94.98091110189446 120.57795188472824 H 0.0 **** 0.06
29698 H 84.22940975598027 93.24928854636747 120.65968216637262 H 0.0 **** 0.06
29699 H 82.53134995828819 93.7754069976306 120.77420261485582 H 0.0 **** 0.06
29700 H 83.65704213487541 94.10083665901263 122.11509643277796 H 0.0 **** 0.06
29701 C 63.56590543217624 35.457827430305315 168.89056899986474 C 0.0 **** -0.24
29702 H 64.21913031460315 36.05884189946579 169.52387861686663 H 0.0 **** 0.06
29703 H 62.525234559223634 35.686515352367735 169.1227008235848 H 0.0 **** 0.06
29704 H 63.75604805111948 34.40055568459502 169.07229790372196 H 0.0 **** 0.06
29705 H 63.7642001426492 35.68801394060176 167.84380849199846 H 0.0 **** 0.06
29706 C 166.59305367045604 163.98689750505378 15.407728462599039 C 0.0 **** -0.24
29707 H 166.2624965755981 162.9484844835997 15.39374348813211 H 0.0 **** 0.06
29708 H 165.87778068175538 164.6029032291658 14.860801828302208 H 0.0 **** 0.06
29709 H 167.57285106266932 164.0631459465638 14.93627387311831 H 0.0 **** 0.06
29710 H 166.65824057373553 164.33455441023693 16.438666154508667 H 0.0 **** 0.06
29711 C 143.44842791913325 55.84582869075655 67.2581995002551 C 0.0 **** -0.24
29712 H 143.68744365398305 55.70360312149967 66.20515747861691 H 0.0 **** 0.06
29713 H 142.3842228590367 56.059674206423395 67.36403384496157 H 0.0 **** 0.06
29714 H 144.02697370928922 56.680266044400554 67.65355912695492 H 0.0 **** 0.06
29715 H 143.693832666467 54.93959307210069 67.81215320358291 H 0.0 **** 0.06
29716 C 57.52868481165288 71.35713036730803 157.84954112082045 C 0.0 **** -0.24
29717 H 57.98455272470524 72.17382043621984 158.41137030107387 H 0.0 **** 0.06
29718 H 57.1593917231656 71.73546882880702 156.89588928048602 H 0.0 **** 0.06
29719 H 56.70020113952893 70.94093545837231 158.4217707586634 H 0.0 **** 0.06
29720 H 58.27270927251395 70.58137071029451 157.669408576821 H 0.0 **** 0.06
29721 C 41.16868685727434 149.2030344582529 163.8659218344547 C 0.0 **** -0.24
29722 H 41.39721671311247 148.16475899053736 163.62521174865998 H 0.0 **** 0.06
29723 H 40.29238229258766 149.52163226183004 163.30017898391463 H 0.0 **** 0.06
29724 H 42.0190499886138 149.83231739110545 163.60386132317097 H 0.0 **** 0.06
29725 H 40.96455392374304 149.29231228796561 164.9328967164709 H 0.0 **** 0.06
29726 C 103.8229867115063 97.23513475377865 71.65209175200354 C 0.0 **** -0.24
29727 H 104.76669323426069 97.70712750315863 71.38054065103334 H 0.0 **** 0.06
29728 H 103.29559669040111 97.86388687128132 72.3698059979399 H 0.0 **** 0.06
29729 H 104.02038805220178 96.26059691099988 72.09893277053774 H 0.0 **** 0.06
29730 H 103.20995868970039 97.10787600278556 70.7597341749542 H 0.0 **** 0.06
29731 C 154.20925521967683 22.613718688200223 85.53558079170668 C 0.0 **** -0.24
29732 H 155.06824049316964 21.94737634656191 85.46216182209959 H 0.0 **** 0.06
29733 H 154.3422722855173 23.455032866419764 84.85523227336226 H 0.0 **** 0.06
29734 H 154.12225678492024 22.982029470566637 86.5577361726278 H 0.0 **** 0.06
29735 H 153.30410398364128 22.06875483067857 85.26865982407857 H 0.0 **** 0.06
29736 C 39.61274192970626 118.8096480231724 115.17797946996842 C 0.0 **** -0.24
29737 H 40.38545097101496 118.32457430434226 115.77619219913811 H 0.0 **** 0.06
29738 H 38.766211749502304 118.1328393220339 115.06206647866952 H 0.0 **** 0.06
29739 H 40.01672149481436 119.05830564870698 114.1969982976947 H 0.0 **** 0.06
29740 H 39.28544421370981 119.72038663618216 115.67856766648418 H 0.0 **** 0.06
29741 C 116.6526055513753 8.38376911919579 156.55199234997474 C 0.0 **** -0.24
29742 H 116.41589532939736 9.437582010540524 156.70089454357392 H 0.0 **** 0.06
29743 H 117.7340467706079 8.260525124142845 156.49004072103529 H 0.0 **** 0.06
29744 H 116.19354921571068 8.036722635988667 155.62681929765805 H 0.0 **** 0.06
29745 H 116.26675472519327 7.803552169820165 157.39000703253973 H 0.0 **** 0.06
29746 C 78.10766982404768 71.39775301250884 27.247443758373493 C 0.0 **** -0.24
29747 H 79.0342294450588 71.74012869291403 26.787303204477325 H 0.0 **** 0.06
29748 H 78.11207739909787 71.65428046271283 28.30640428692567 H 0.0 **** 0.06
29749 H 78.02287312005936 70.31729800413859 27.134941960461504 H 0.0 **** 0.06
29750 H 77.2609546924711 71.88063140902008 26.759409814898476 H 0.0 **** 0.06
29751 C 60.099103646925585 168.34873737918474 43.64927383472087 C 0.0 **** -0.24
29752 H 59.764799640985444 167.34564442709427 43.91621311071029 H 0.0 **** 0.06
29753 H 61.009085380137975 168.2809215854084 43.051602103815185 H 0.0 **** 0.06
29754 H 60.301855239958485 168.91683099208603 44.55672113406368 H 0.0 **** 0.06
29755 H 59.321414405437906 168.84924202434183 43.0722212077867 H 0.0 **** 0.06
29756 C 97.44819846457989 93.05138912329102 98.43404724357416 C 0.0 **** -0.24
29757 H 96.41142812843478 93.27840835224256 98.68387067213095 H 0.0 **** 0.06
29758 H 97.68907729870836 93.48084556662113 97.46156087457976 H 0.0 **** 0.06
29759 H 97.58483577572991 91.97096337897082 98.39842958436171 H 0.0 **** 0.06
29760 H 98.10571878458364 93.47694524158592 99.19297164043209 H 0.0 **** 0.06
29761 C 64.50975000149197 61.167767928398575 94.16136561814446 C 0.0 **** -0.24
29762 H 63.52603429652112 61.501269657040126 94.48985939009785 H 0.0 **** 0.06
29763 H 64.47723400644048 60.10052757332181 93.94420462975057 H 0.0 **** 0.06
29764 H 65.23976644833499 61.35741966949388 94.94782309953575 H 0.0 **** 0.06
29765 H 64.79539671427153 61.71321900959916 93.26189729743587 H 0.0 **** 0.06
29766 C 146.1445448850705 49.76543406028594 134.8679517769726 C 0.0 **** -0.24
29767 H 145.4453286394746 48.99594478467952 134.54057113577758 H 0.0 **** 0.06
29768 H 146.39143893958362 50.412511266413134 134.02740341627157 H 0.0 **** 0.06
29769 H 147.05328245484955 49.29312239943761 135.24371229179854 H 0.0 **** 0.06
29770 H 145.68861489009305 50.356738397839734 135.6625845405042 H 0.0 **** 0.06
29771 C 106.47864074192631 147.29758976145104 122.4561577586885 C 0.0 **** -0.24
29772 H 107.4073290282322 146.94397751626823 122.00870874359555 H 0.0 **** 0.06
29773 H 106.70117761909114 147.82601271401174 123.38350274510765 H 0.0 **** 0.06
29774 H 105.83068053016592 146.44763896802021 122.66783999490539 H 0.0 **** 0.06
29775 H 105.9758968115222 147.97401099640345 121.76428416976535 H 0.0 **** 0.06
29776 C 112.76491874017643 25.397008710098703 156.388315624021 C 0.0 **** -0.24
29777 H 113.36778239964534 25.43693033721729 157.29563743105024 H 0.0 **** 0.06
29778 H 112.17300219687505 24.481674568541365 156.38509023281202 H 0.0 **** 0.06
29779 H 113.4193672297277 25.410962021292875 155.51718667604632 H 0.0 **** 0.06
29780 H 112.10043481564256 26.26067425484564 156.35686509982864 H 0.0 **** 0.06
29781 C 149.18250158516793 164.9912332511032 6.8118866270284855 C 0.0 **** -0.24
29782 H 149.8604992648228 165.44290758921466 6.087478155496008 H 0.0 **** 0.06
29783 H 148.71970911236593 164.10714996931057 6.373327550828215 H 0.0 **** 0.06
29784 H 148.40973994722054 165.70985575679657 7.084171991145077 H 0.0 **** 0.06
29785 H 149.74249381846602 164.70512257348733 7.702331218518502 H 0.0 **** 0.06
29786 C 71.82079531986057 149.37541318761618 171.15886563062392 C 0.0 **** -0.24
29787 H 72.67839812272382 150.04512278106174 171.0981888966013 H 0.0 **** 0.06
29788 H 71.13641493616383 149.58613846270094 170.33685800026737 H 0.0 **** 0.06
29789 H 71.30653092643541 149.52771101149125 172.1085180568373 H 0.0 **** 0.06
29790 H 72.16118444982385 148.34194766334517 171.09170578840875 H 0.0 **** 0.06
29791 C 89.89632285046152 57.47733363238751 156.5461357917843 C 0.0 **** -0.24
29792 H 90.16265906248486 57.298316968681775 155.50402962375148 H 0.0 **** 0.06
29793 H 88.9212421043875 57.9606338430292 156.59402722757767 H 0.0 **** 0.06
29794 H 90.64465367700238 58.12215749752511 157.00718714397198 H 0.0 **** 0.06
29795 H 89.85804656497108 56.52771685937688 157.079455661324 H 0.0 **** 0.06
29796 C 63.038246694487384 121.7068206347393 91.6164440580977 C 0.0 **** -0.24
29797 H 62.57337923045195 121.03243902852165 90.89757838028238 H 0.0 **** 0.06
29798 H 62.3121316846196 122.4538644562619 91.93676218297375 H 0.0 **** 0.06
29799 H 63.889690638083735 122.20275045770052 91.15031316572124 H 0.0 **** 0.06
29800 H 63.37838346041896 121.13633668011752 92.4808717478185 H 0.0 **** 0.06
29801 C 112.25686890130586 147.38907836449826 137.6302797253059 C 0.0 **** -0.24
29802 H 112.98866982797168 147.43605675655584 136.82418320287695 H 0.0 **** 0.06
29803 H 112.2946759364512 148.31150775195349 138.20943931289787 H 0.0 **** 0.06
29804 H 112.4848840803725 146.54321915579376 138.2788207505257 H 0.0 **** 0.06
29805 H 111.25924576042831 147.2655297936897 137.20867563492288 H 0.0 **** 0.06
29806 C 170.60526547768455 124.65810510338281 167.97770418714816 C 0.0 **** -0.24
29807 H 169.61103089124447 124.28373904891205 168.2216935960545 H 0.0 **** 0.06
29808 H 170.66446873745383 124.85920185826171 166.90767695544187 H 0.0 **** 0.06
29809 H 171.35144369244802 123.91206656455833 168.24926767416167 H 0.0 **** 0.06
29810 H 170.79247521796148 125.57786240826522 168.53113094415087 H 0.0 **** 0.06
29811 C 95.58267618352889 94.87327357366078 7.87158693442143 C 0.0 **** -0.24
29812 H 94.94610508053509 94.38773780874774 7.132414819394512 H 0.0 **** 0.06
29813 H 95.54837356679175 95.95302041541754 7.726042177347722 H 0.0 **** 0.06
29814 H 96.60836904177782 94.52303981922071 7.753927785201427 H 0.0 **** 0.06
29815 H 95.22790906059834 94.62927228623602 8.872549882523742 H 0.0 **** 0.06
29816 C 97.20735730727799 56.59868574099144 138.39292042745504 C 0.0 **** -0.24
29817 H 97.61727922420565 56.751984961746885 137.3945649997231 H 0.0 **** 0.06
29818 H 98.02374854403834 56.520891060599894 139.1114018396632 H 0.0 **** 0.06
29819 H 96.62191387338393 55.678855779624485 138.40720464784718 H 0.0 **** 0.06
29820 H 96.56880694661385 57.44092178296941 138.6573897870609 H 0.0 **** 0.06
29821 C 12.367286160442035 14.546121173195047 47.71088590698744 C 0.0 **** -0.24
29822 H 12.353318084200168 13.970755295812204 48.63732760781204 H 0.0 **** 0.06
29823 H 13.377206317223198 14.91335328949539 47.526589805133796 H 0.0 **** 0.06
29824 H 11.683819432819405 15.390349568070526 47.79802841150952 H 0.0 **** 0.06
29825 H 12.0553025576246 13.909477555092074 46.88393169095036 H 0.0 **** 0.06
29826 C 32.33215751509229 106.82478145806692 79.79951079779578 C 0.0 **** -0.24
29827 H 33.092827133982 107.55845148702119 79.5345651880128 H 0.0 **** 0.06
29828 H 32.62623601578075 105.84484641206524 79.42357952027581 H 0.0 **** 0.06
29829 H 31.37868632278976 107.11305420425518 79.35735055147495 H 0.0 **** 0.06
29830 H 32.23135101854572 106.78184800588818 80.88452830296156 H 0.0 **** 0.06
29831 C 76.4156265283192 143.32584291080514 138.20929071007458 C 0.0 **** -0.24
29832 H 76.43719591861478 142.44737440268113 137.56406901384187 H 0.0 **** 0.06
29833 H 75.37944634620024 143.60042284807332 138.41389704465809 H 0.0 **** 0.06
29834 H 76.9188779590102 144.15393824145485 137.71175351303333 H 0.0 **** 0.06
29835 H 76.92413706117465 143.10111820337465 139.14665831075231 H 0.0 **** 0.06
29836 C 67.5032296222816 144.2419697902888 107.66502516682743 C 0.0 **** -0.24
29837 H 66.66993043157697 143.58575469889965 107.41333010388635 H 0.0 **** 0.06
29838 H 67.16332780753376 145.01064336268013 108.35933265656698 H 0.0 **** 0.06
29839 H 67.88147119003753 144.71265954926943 106.75781204984492 H 0.0 **** 0.06
29840 H 68.29744139159519 143.65726527255487 108.12948774348652 H 0.0 **** 0.06
29841 C 134.42313511156522 39.958036512558465 147.83584969007467 C 0.0 **** -0.24
29842 H 134.39287391883065 39.38707205936721 146.9080528223119 H 0.0 **** 0.06
29843 H 133.6496882105718 40.72566280805465 147.81592633060313 H 0.0 **** 0.06
29844 H 135.40056779029186 40.42891907428549 147.94123545606453 H 0.0 **** 0.06
29845 H 134.25021872988796 39.28981910479324 148.68015747669148 H 0.0 **** 0.06
29846 C 122.00569242873749 83.4695791850661 79.55223998874236 C 0.0 **** -0.24
29847 H 122.19103615388639 84.5417901384692 79.49407178806537 H 0.0 **** 0.06
29848 H 122.77524954505785 83.00171724067516 80.16729955275561 H 0.0 **** 0.06
29849 H 122.03244618790089 83.04224799287243 78.54996534204429 H 0.0 **** 0.06
29850 H 121.02696880249101 83.29362068160032 79.99648856878633 H 0.0 **** 0.06
29851 C 51.79029905784462 78.16529069128518 126.1072790641445 C 0.0 **** -0.24
29852 H 52.523686755703125 77.37979546830182 125.92814254599901 H 0.0 **** 0.06
29853 H 51.99585915373427 78.641566736613 127.06634495497417 H 0.0 **** 0.06
29854 H 50.79029732438218 77.73232595182085 126.12371810695623 H 0.0 **** 0.06
29855 H 51.85227211902394 78.90800643768742 125.31184468783965 H 0.0 **** 0.06
29856 C 29.848295128899522 30.009389293461652 48.114346381004964 C 0.0 **** -0.24
29857 H 29.140150481044643 30.813615647441793 47.91698050464885 H 0.0 **** 0.06
29858 H 29.338476722003477 29.194578277596833 48.62922637540851 H 0.0 **** 0.06
29859 H 30.658079183651168 30.384638772372284 48.739977897767176 H 0.0 **** 0.06
29860 H 30.256270667650924 29.644824146660568 47.17217475712903 H 0.0 **** 0.06
29861 C 78.04810082559348 112.59963644573949 117.51351692355021 C 0.0 **** -0.24
29862 H 78.9321482830272 113.23313272369677 117.43163417438709 H 0.0 **** 0.06
29863 H 77.40928552837403 112.7542642945684 116.64401969691562 H 0.0 **** 0.06
29864 H 77.49918765837585 112.85772931148878 118.41956417016641 H 0.0 **** 0.06
29865 H 78.3539730177125 111.55443756802902 117.55844676616721 H 0.0 **** 0.06
29866 C 148.36711744876254 85.23442180141903 4.656385184894916 C 0.0 **** -0.24
29867 H 147.28577912267804 85.28086696497293 4.522977957520311 H 0.0 **** 0.06
29868 H 148.85835392781232 85.68726225055296 3.795175899594085 H 0.0 **** 0.06
29869 H 148.67797837379658 84.19411055750155 4.74716601288786 H 0.0 **** 0.06
29870 H 148.64401091639766 85.77751714356212 5.559766959833929 H 0.0 **** 0.06
29871 C 100.40439038478272 88.99062369431692 68.1239660442181 C 0.0 **** -0.24
29872 H 99.46937191751465 88.98652202998392 68.68292649758678 H 0.0 **** 0.06
29873 H 100.68652047113369 90.01986778817616 67.89702230656923 H 0.0 **** 0.06
29874 H 100.27474957366587 88.4358369136495 67.1947819560869 H 0.0 **** 0.06
29875 H 101.18649532360098 88.52194732680834 68.72112306524036 H 0.0 **** 0.06
29876 C 134.3582571391894 90.97891698340051 104.13758066290333 C 0.0 **** -0.24
29877 H 134.7225764299246 91.70864162894458 104.85987807300353 H 0.0 **** 0.06
29878 H 133.6507477407511 91.45932781290271 103.4619194572065 H 0.0 **** 0.06
29879 H 133.8625497773537 90.16269270804473 104.66326529655663 H 0.0 **** 0.06
29880 H 135.197912441437 90.58447437294068 103.56419055030628 H 0.0 **** 0.06
29881 C 118.03098735317471 5.962143003488599 62.038499031373476 C 0.0 **** -0.24
29882 H 118.28516568867806 6.53320748068252 61.145816608716586 H 0.0 **** 0.06
29883 H 116.96669404072722 5.727611432522494 62.0294511547977 H 0.0 **** 0.06
29884 H 118.26587472444677 6.5512786316592795 62.926011493559145 H 0.0 **** 0.06
29885 H 118.60735754934782 5.037021579521927 62.0545595015314 H 0.0 **** 0.06
29886 C 116.52391120829688 113.55747930514468 52.45388989232144 C 0.0 **** -0.24
29887 H 116.85905438140014 113.3657122747831 53.47373089682053 H 0.0 **** 0.06
29888 H 117.3874184003009 113.59345533953962 51.789617175758124 H 0.0 **** 0.06
29889 H 115.99655961465925 114.51000322160934 52.41765963575001 H 0.0 **** 0.06
29890 H 115.85342330188146 112.75822979687683 52.135969441729955 H 0.0 **** 0.06
29891 C 117.0270960828839 49.78613788738937 64.21614922403201 C 0.0 **** -0.24
29892 H 117.42744583222685 50.7186069606654 64.61559349424637 H 0.0 **** 0.06
29893 H 116.69778564947242 49.15084302669521 65.03829170532686 H 0.0 **** 0.06
29894 H 117.80307827389609 49.27245489055741 63.64705902667595 H 0.0 **** 0.06
29895 H 116.18190619944198 50.00384403678919 63.5631926571551 H 0.0 **** 0.06
29896 C 110.88490552261928 74.7572843477903 37.71432715250265 C 0.0 **** -0.24
29897 H 110.00605094294986 74.73147677482719 37.0701604200579 H 0.0 **** 0.06
29898 H 111.78604311620188 74.71212512748058 37.101207327028305 H 0.0 **** 0.06
29899 H 110.86364965779362 73.90541622328873 38.39285572804357 H 0.0 **** 0.06
29900 H 110.88458288699832 75.68199811116702 38.29209835241366 H 0.0 **** 0.06
29901 C 116.36207996525079 154.20254806247888 162.03191405107205 C 0.0 **** -0.24
29902 H 116.69711800864798 154.87656099167498 161.24437406582516 H 0.0 **** 0.06
29903 H 115.66601151896518 153.4746932422648 161.61492452420293 H 0.0 **** 0.06
29904 H 115.86464978448035 154.77575927544572 162.8143629690757 H 0.0 **** 0.06
29905 H 117.2223266862608 153.681509595816 162.45384025322386 H 0.0 **** 0.06
29906 C 46.7270265212199 21.09510934319934 76.16308471155418 C 0.0 **** -0.24
29907 H 45.94933616504099 21.785027531488424 75.83505301104265 H 0.0 **** 0.06
29908 H 47.55408792007421 21.658893957730328 76.59385903500186 H 0.0 **** 0.06
29909 H 47.08531326292632 20.51983577387898 75.30901847645669 H 0.0 **** 0.06
29910 H 46.31874073351557 20.41611148778648 76.91210996592378 H 0.0 **** 0.06
29911 C 19.029055351180894 114.76797992379119 117.70768428808736 C 0.0 **** -0.24
29912 H 18.519225936079195 113.99814707643264 117.12937770067032 H 0.0 **** 0.06
29913 H 19.746727365406613 115.28455507264334 117.07134228477605 H 0.0 **** 0.06
29914 H 19.550965072817604 114.30683700338977 118.54532836225937 H 0.0 **** 0.06
29915 H 18.29693703700375 115.48283815781093 118.08512793008552 H 0.0 **** 0.06
29916 C 87.46416464135798 22.75648293078708 10.07287351743362 C 0.0 **** -0.24
29917 H 87.85260133832278 23.709323947553408 10.430742319524313 H 0.0 **** 0.06
29918 H 86.889459417855 22.277600467462527 10.86658172508173 H 0.0 **** 0.06
29919 H 88.29357670768492 22.111349872602922 9.784268030197858 H 0.0 **** 0.06
29920 H 86.81962662293003 22.928621334903973 9.210257538340393 H 0.0 **** 0.06
29921 C 117.33933265169901 93.36387987739951 163.4031166562815 C 0.0 **** -0.24
29922 H 117.96266371301658 92.9762033881245 164.20923918324604 H 0.0 **** 0.06
29923 H 116.29156045673471 93.15140871777294 163.61985767762076 H 0.0 **** 0.06
29924 H 117.6206262976149 92.88629452410854 162.4646070411781 H 0.0 **** 0.06
29925 H 117.48195972618888 94.44139283014329 163.32005918139612 H 0.0 **** 0.06
29926 C 136.58232169456957 120.38481323164797 162.02827182706525 C 0.0 **** -0.24
29927 H 137.58939950553076 120.3973340679448 161.61063596254758 H 0.0 **** 0.06
29928 H 136.58933510065805 120.86377183773641 163.00681340505258 H 0.0 **** 0.06
29929 H 136.24446235200548 119.3538446130105 162.13017834435462 H 0.0 **** 0.06
29930 H 135.90748031112753 120.92393739093038 161.36374686838573 H 0.0 **** 0.06
29931 C 152.8940037209273 159.85434844612143 108.00092362150434 C 0.0 **** -0.24
29932 H 153.39203132167165 159.53513346061618 108.9168158128112 H 0.0 **** 0.06
29933 H 151.9428613288706 159.331579738296 107.90388655201781 H 0.0 **** 0.06
29934 H 153.526000972521 159.62159307853756 107.14367301156614 H 0.0 **** 0.06
29935 H 152.71659440077173 160.92881638882113 108.04064442649423 H 0.0 **** 0.06
29936 C 50.56085616411005 98.11371863811448 144.27931963392828 C 0.0 **** -0.24
29937 H 49.77456389286627 97.86185107578518 144.99133044536399 H 0.0 **** 0.06
29938 H 50.878501355526126 99.14333575610272 144.4401558037948 H 0.0 **** 0.06
29939 H 50.17982272985557 98.00384610859987 143.2635653527411 H 0.0 **** 0.06
29940 H 51.40838615203904 97.44389634611335 144.42383674288953 H 0.0 **** 0.06
29941 C 137.24324480186925 161.4116182911699 47.782453103847686 C 0.0 **** -0.24
29942 H 136.32346262212545 161.5274514031979 48.356770654733054 H 0.0 **** 0.06
29943 H 137.40121268757548 162.29852844974494 47.16871154046589 H 0.0 **** 0.06
29944 H 137.16194149529366 160.53464814221778 47.14033760619971 H 0.0 **** 0.06
29945 H 138.08385837197278 161.2870996056119 48.46506800819054 H 0.0 **** 0.06
29946 C 16.685256188335586 89.30470748111848 52.062693304813806 C 0.0 **** -0.24
29947 H 16.63103766766534 88.22470057558202 52.2027384588948 H 0.0 **** 0.06
29948 H 17.711163567097287 89.59023284247435 51.82874347869745 H 0.0 **** 0.06
29949 H 16.367689794665353 89.80529954017835 52.97728302474545 H 0.0 **** 0.06
29950 H 16.030721942598575 89.59727345702602 51.242288997677946 H 0.0 **** 0.06
29951 C 100.21884906677161 117.3282042320366 143.21924904700495 C 0.0 **** -0.24
29952 H 100.93685156244115 117.81547878063432 142.55981511737247 H 0.0 **** 0.06
29953 H 100.3053614153448 116.24585184006048 143.11391076799907 H 0.0 **** 0.06
29954 H 99.20998406351953 117.64023047734517 142.95057602720436 H 0.0 **** 0.06
29955 H 100.4242136683495 117.61004498178758 144.2511115902945 H 0.0 **** 0.06
29956 C 94.34096804588782 132.4953401782175 44.859163442497874 C 0.0 **** -0.24
29957 H 94.31484160966971 133.19758892358368 44.026333162346475 H 0.0 **** 0.06
29958 H 94.27014813010771 131.47608479036398 44.47803720585853 H 0.0 **** 0.06
29959 H 93.5025548408839 132.69254563747688 45.52725886356153 H 0.0 **** 0.06
29960 H 95.27649513515385 132.61417663253414 45.40522766134093 H 0.0 **** 0.06
29961 C 43.89111077035366 108.33308822949405 4.611176326522013 C 0.0 **** -0.24
29962 H 43.02947299360328 108.26170105600067 5.273717157512877 H 0.0 **** 0.06
29963 H 44.719462913217015 107.76012257715615 5.029155157685338 H 0.0 **** 0.06
29964 H 44.185966921630836 109.37751364369868 4.510525526993561 H 0.0 **** 0.06
29965 H 43.630703870543456 107.93381884215134 3.6312771638005614 H 0.0 **** 0.06
29966 C 69.43007883037069 71.66946041358646 11.804495466024676 C 0.0 **** -0.24
29967 H 68.57445537859557 71.42859569732768 11.173935499503855 H 0.0 **** 0.06
29968 H 69.12310555565077 71.66543677886635 12.851263088845705 H 0.0 **** 0.06
29969 H 69.8094145381718 72.65743045141345 11.541058859186755 H 0.0 **** 0.06
29970 H 70.21408431620492 70.92668625840064 11.65288684884775 H 0.0 **** 0.06
29971 C 163.4346013929361 76.06103449741671 133.5382251166521 C 0.0 **** -0.24
29972 H 163.9388229808726 76.83734181133111 132.96275163462627 H 0.0 **** 0.06
29973 H 162.4940160675391 76.45024969142634 133.9278890248027 H 0.0 **** 0.06
29974 H 164.07257104542333 75.7538058974512 134.36722120204627 H 0.0 **** 0.06
29975 H 163.23568732061386 75.20332711583978 132.89567906833523 H 0.0 **** 0.06
29976 C 89.25769161612227 57.438034446762 76.48061972445343 C 0.0 **** -0.24
29977 H 89.70154490710368 58.283961904056554 77.00484787981445 H 0.0 **** 0.06
29978 H 88.71196853415051 56.816409233557366 77.19138806506785 H 0.0 **** 0.06
29979 H 90.04463518564035 56.84809411421499 76.01138162875361 H 0.0 **** 0.06
29980 H 88.57294214172289 57.80431120385512 75.71555914731996 H 0.0 **** 0.06
29981 C 33.31753777320108 124.05280560991878 73.37471091931235 C 0.0 **** -0.24
29982 H 32.61147726035969 123.78973862340936 72.58765280694736 H 0.0 **** 0.06
29983 H 34.33538526715256 123.97011084920618 72.99230763997667 H 0.0 **** 0.06
29984 H 33.19049067960111 123.37521866996147 74.21883126114386 H 0.0 **** 0.06
29985 H 33.13481363415531 125.07747030463736 73.69959914484906 H 0.0 **** 0.06
29986 C 33.81125061980225 143.98674001218546 39.854587138257216 C 0.0 **** -0.24
29987 H 34.246542075257906 142.99955537551307 39.703782664571236 H 0.0 **** 0.06
29988 H 32.72500039851269 143.90156523389754 39.9002810313097 H 0.0 **** 0.06
29989 H 34.090628062962764 144.63779080733934 39.02624524599807 H 0.0 **** 0.06
29990 H 34.18233545860289 144.40874009668283 40.789168963268935 H 0.0 **** 0.06
29991 C 124.19141128262888 101.30079659892166 12.238815294902643 C 0.0 **** -0.24
29992 H 124.11507535072178 102.27787654206867 12.716548288382306 H 0.0 **** 0.06
29993 H 124.92273125040987 100.692543391013 12.770494998805667 H 0.0 **** 0.06
29994 H 124.50766256681749 101.42759990383024 11.203000998155119 H 0.0 **** 0.06
29995 H 123.21966047518316 100.80782870287203 12.264412229729352 H 0.0 **** 0.06
29996 C 136.81246417892558 144.86059996144064 15.192525255232852 C 0.0 **** -0.24
29997 H 136.77598260656208 144.1401376267196 14.375575871375702 H 0.0 **** 0.06
29998 H 137.68956804995995 145.49772434074973 15.075424728203444 H 0.0 **** 0.06
29999 H 136.8736485569195 144.32947664916887 16.142397185432685 H 0.0 **** 0.06
30000 H 135.91185550285488 145.47383625560437 15.176449625495025 H 0.0 **** 0.06
30001 C 158.13954675943944 110.56110577324733 130.2996679818626 C 0.0 **** -0.24
30002 H 158.6031646677558 109.67405126073143 129.86625945037943 H 0.0 **** 0.06
30003 H 157.16480426283135 110.72228938895395 129.8394701045501 H 0.0 **** 0.06
30004 H 158.77490704596713 111.42756473298056 130.11844894510284 H 0.0 **** 0.06
30005 H 158.0159484412276 110.41764314703022 131.37296668584534 H 0.0 **** 0.06
30006 C 166.83442198064938 148.87304502245718 64.04296801945095 C 0.0 **** -0.24
30007 H 167.41845643304688 149.34793462135679 63.25488312498595 H 0.0 **** 0.06
30008 H 167.50090413915098 148.32754119622888 64.71032569422617 H 0.0 **** 0.06
30009 H 166.11891720820606 148.18163944817024 63.59729049943094 H 0.0 **** 0.06
30010 H 166.2989220213309 149.636712508232 64.60762718116891 H 0.0 **** 0.06
30011 C 61.792807674173304 24.65205025176016 159.67216803909128 C 0.0 **** -0.24
30012 H 62.23745376288376 23.690601728585307 159.4144903548524 H 0.0 **** 0.06
30013 H 60.967674133356425 24.494695141483504 160.36786066933337 H 0.0 **** 0.06
30014 H 61.41982148818822 25.13286278199803 158.76841377379418 H 0.0 **** 0.06
30015 H 62.54537249539696 25.286699204487434 160.13797382047716 H 0.0 **** 0.06
30016 C 2.9631529456646035 39.10463504423491 74.64577518330375 C 0.0 **** -0.24
30017 H 2.2957395872384154 39.6029313610247 75.34990756780277 H 0.0 **** 0.06
30018 H 3.992249863113443 39.40253959645574 74.84990904906232 H 0.0 **** 0.06
30019 H 2.6965176436677893 39.38992529334054 73.62874753423242 H 0.0 **** 0.06
30020 H 2.868130496334004 38.02471130085213 74.75793409024152 H 0.0 **** 0.06
30021 C 144.23619056285062 152.35481781022213 34.77334155479491 C 0.0 **** -0.24
30022 H 143.4039087154332 152.80100599456716 34.22868916603056 H 0.0 **** 0.06
30023 H 145.1360857837149 152.39611232242441 34.159571611482875 H 0.0 **** 0.06
30024 H 144.00266943144317 151.31565765990155 35.004981893540815 H 0.0 **** 0.06
30025 H 144.40066171651227 152.90576346447875 35.698574103962045 H 0.0 **** 0.06
30026 C 71.15137278194725 50.486166204935046 117.55657313972003 C 0.0 **** -0.24
30027 H 70.86405995475408 49.67257423855929 116.88979756756129 H 0.0 **** 0.06
30028 H 72.20929507020355 50.39803836408274 117.80138340718798 H 0.0 **** 0.06
30029 H 70.5600682496263 50.43114451370968 118.47095969214104 H 0.0 **** 0.06
30030 H 70.96980836693272 51.440927640836975 117.06242724441421 H 0.0 **** 0.06
30031 C 77.53625783968442 50.35253354761687 143.74247549911414 C 0.0 **** -0.24
30032 H 77.08154662073838 50.35187805083757 144.73272973017836 H 0.0 **** 0.06
30033 H 78.61052198271483 50.518800487921794 143.83703294807867 H 0.0 **** 0.06
30034 H 77.09655674335772 51.14851669353993 143.14187084567234 H 0.0 **** 0.06
30035 H 77.35790636210302 49.39206616452128 143.25984280501396 H 0.0 **** 0.06
30036 C 74.6248602894259 36.276175140226385 155.49448414870542 C 0.0 **** -0.24
30037 H 75.60836630450478 36.489301706655596 155.91200796854886 H 0.0 **** 0.06
30038 H 74.72748255878312 36.00011849100069 154.44471007789244 H 0.0 **** 0.06
30039 H 73.9955666622682 37.162867630606826 155.57830046960353 H 0.0 **** 0.06
30040 H 74.16772914768825 35.453675635139035 156.04473942825152 H 0.0 **** 0.06
30041 C 22.617638698785868 38.88230450685501 2.1540681301504208 C 0.0 **** -0.24
30042 H 22.818565871090847 38.039572931386715 1.4919880965131256 H 0.0 **** 0.06
30043 H 21.750302611710374 39.432206877577585 1.7880316634374083 H 0.0 **** 0.06
30044 H 23.48471749015505 39.54171241150806 2.174310179863994 H 0.0 **** 0.06
30045 H 22.417133766136445 38.51363897115414 3.1595723088232717 H 0.0 **** 0.06
30046 C 90.8770027059105 44.65275338825896 156.54672003381094 C 0.0 **** -0.24
30047 H 90.6493079722998 44.397068380770364 157.5815468163185 H 0.0 **** 0.06
30048 H 91.78108653680678 45.26171530593774 156.51302984183928 H 0.0 **** 0.06
30049 H 90.04471569169587 45.21394961638322 156.12003707284083 H 0.0 **** 0.06
30050 H 91.03102646013467 43.73970728207637 155.97293816390567 H 0.0 **** 0.06
30051 C 23.292304488839306 14.980886598115653 156.97767887950076 C 0.0 **** -0.24
30052 H 24.30146949334528 15.07284000737343 157.38174546573902 H 0.0 **** 0.06
30053 H 23.048232625057835 15.875682579050682 156.40405853861677 H 0.0 **** 0.06
30054 H 22.582106970032726 14.870225170744497 157.7977890846858 H 0.0 **** 0.06
30055 H 23.238732693300562 14.106712279865313 156.32901602331083 H 0.0 **** 0.06
30056 C 82.85216976202713 89.12395787918729 85.51789592720291 C 0.0 **** -0.24
30057 H 82.42844355988235 90.00074741834561 86.00794837797594 H 0.0 **** 0.06
30058 H 82.14467975053103 88.74230605048893 84.78100381756752 H 0.0 **** 0.06
30059 H 83.05242569911611 88.35361028400757 86.26208024994219 H 0.0 **** 0.06
30060 H 83.78211233948721 89.40014200904568 85.02042801223234 H 0.0 **** 0.06
30061 C 102.43499566253149 39.513432743986755 24.969669726576527 C 0.0 **** -0.24
30062 H 102.9941651445499 39.18104559178366 24.095275395804677 H 0.0 **** 0.06
30063 H 102.23779812971273 38.660505243581866 25.620214143505038 H 0.0 **** 0.06
30064 H 101.48936891481767 39.95236788935256 24.6509360017834 H 0.0 **** 0.06
30065 H 103.01748073515833 40.25766207798742 25.512160284755822 H 0.0 **** 0.06
30066 C 6.638428839042895 33.98406551932027 1.4489588304206578 C 0.0 **** -0.24
30067 H 7.063160346027352 32.9958121733452 1.6319608085548865 H 0.0 **** 0.06
30068 H 6.4710049434630434 34.114491747099635 0.3797425623720727 H 0.0 **** 0.06
30069 H 7.330154569016763 34.74741814501857 1.8047529554085457 H 0.0 **** 0.06
30070 H 5.691625515673252 34.075731603152065 1.979753459712832 H 0.0 **** 0.06
30071 C 137.14789829524943 172.08995983738413 35.38706548727825 C 0.0 **** -0.24
30072 H 137.87941999251998 172.57781947229856 34.743989964302045 H 0.0 **** 0.06
30073 H 136.38363885402896 171.61360489491523 34.77217713317668 H 0.0 **** 0.06
30074 H 136.68123903803547 172.8324730636959 36.0354091222124 H 0.0 **** 0.06
30075 H 137.64574980144164 171.33657419011004 35.9971459053227 H 0.0 **** 0.06
30076 C 132.2233450317938 20.805822931931388 0.7232142205879128 C 0.0 **** -0.24
30077 H 131.2615316448701 21.191492382935394 1.0596785403531896 H 0.0 **** 0.06
30078 H 132.13444333231317 19.739918703195784 0.5139492190227628 H 0.0 **** 0.06
30079 H 132.97042549941037 20.96254530043904 1.501477715189587 H 0.0 **** 0.06
30080 H 132.5275094673162 21.33012344531287 -0.18369713281037292 H 0.0 **** 0.06
30081 C 3.596621247733772 158.65727457120732 48.73840135441503 C 0.0 **** -0.24
30082 H 4.439522102244439 159.32234534192338 48.55712494596412 H 0.0 **** 0.06
30083 H 3.4509300004900467 158.53932138168324 49.81251555306443 H 0.0 **** 0.06
30084 H 3.7978752752561746 157.68451370059677 48.28927742880484 H 0.0 **** 0.06
30085 H 2.6958761508093403 159.0823549511652 48.29399594730751 H 0.0 **** 0.06
30086 C 150.17917770958755 131.46585799884144 17.709091237494533 C 0.0 **** -0.24
30087 H 150.328599769792 130.73523511166252 18.503432097621555 H 0.0 **** 0.06
30088 H 149.5974268718762 131.0140667067404 16.905486992511953 H 0.0 **** 0.06
30089 H 151.14719312835854 131.78475163145092 17.32239084934372 H 0.0 **** 0.06
30090 H 149.643435292959 132.32805289718652 18.1055445015524 H 0.0 **** 0.06
30091 C 42.95068642742734 69.00255978832348 25.36324382709745 C 0.0 **** -0.24
30092 H 42.85773539432047 68.19453251519815 26.089564860757832 H 0.0 **** 0.06
30093 H 43.84836238221092 69.58331480561472 25.579770332673945 H 0.0 **** 0.06
30094 H 42.0755566227796 69.64927732936385 25.425944943864977 H 0.0 **** 0.06
30095 H 43.02282065627824 68.58288026899005 24.360515597382232 H 0.0 **** 0.06
30096 C 71.3164043648342 57.14895151231613 104.10252758383149 C 0.0 **** -0.24
30097 H 70.51646887117606 57.816027234026535 104.42351257937025 H 0.0 **** 0.06
30098 H 71.1930457256775 56.177364773052375 104.58102632033382 H 0.0 **** 0.06
30099 H 72.27931828151956 57.57370170510619 104.38377873339499 H 0.0 **** 0.06
30100 H 71.27442578551914 57.028312805043896 103.01949558110368 H 0.0 **** 0.06
30101 C 54.3285612090003 81.27325311730203 39.470490281880146 C 0.0 **** -0.24
30102 H 54.22102493365122 81.19491346651671 38.389161931171444 H 0.0 **** 0.06
30103 H 54.17610040254965 80.29285253067701 39.92293321317416 H 0.0 **** 0.06
30104 H 53.58784761924238 81.97198422510917 39.85971182492028 H 0.0 **** 0.06
30105 H 55.32862757862421 81.63339956110633 39.710906519710576 H 0.0 **** 0.06
30106 C 154.40563038514978 120.99717112325911 30.63565048823537 C 0.0 **** -0.24
30107 H 153.48541403851056 120.59408564834283 31.056562728448498 H 0.0 **** 0.06
30108 H 154.37501519661518 120.91538656136129 29.548664191004264 H 0.0 **** 0.06
30109 H 155.25735461538477 120.43410802524429 31.018350098251588 H 0.0 **** 0.06
30110 H 154.50613894128918 122.04523195164552 30.91916722118779 H 0.0 **** 0.06
30111 C 7.638098734167059 78.16398278204451 3.8034730901555918 C 0.0 **** -0.24
30112 H 6.617434092726036 77.80727759082279 3.941655147291044 H 0.0 **** 0.06
30113 H 7.879891838178601 78.88549327177637 4.583307602984831 H 0.0 **** 0.06
30114 H 7.726869825622039 78.64109398584185 2.826837635188383 H 0.0 **** 0.06
30115 H 8.32805673646331 77.32192511750645 3.8598648867713052 H 0.0 **** 0.06
30116 C 120.65776251635302 63.93166264940578 48.74037333746931 C 0.0 **** -0.24
30117 H 121.37589027588112 63.56830985171101 49.47619293495816 H 0.0 **** 0.06
30118 H 120.4611820450267 64.98924121986363 48.91692609383195 H 0.0 **** 0.06
30119 H 119.72822075951493 63.368966951610105 48.830998283886515 H 0.0 **** 0.06
30120 H 121.066566107222 63.80044047642488 47.73849432761175 H 0.0 **** 0.06
30121 C 16.2542436467317 150.28185022295466 39.848555077490346 C 0.0 **** -0.24
30122 H 16.900768521924952 150.61131065640473 40.66151545484627 H 0.0 **** 0.06
30123 H 15.213245063281867 150.46910176491883 40.11435581169229 H 0.0 **** 0.06
30124 H 16.39886774112727 149.21524340612132 39.67874066381751 H 0.0 **** 0.06
30125 H 16.502264794009655 150.83080424123128 38.94093944285001 H 0.0 **** 0.06
30126 C 107.68699281321449 111.14972385081316 15.63627689466881 C 0.0 **** -0.24
30127 H 107.09537564620896 110.23822868970652 15.549151163592853 H 0.0 **** 0.06
30128 H 108.07769790819935 111.23411846882152 16.65014436677035 H 0.0 **** 0.06
30129 H 107.05790191342413 112.01237813921412 15.416121468375536 H 0.0 **** 0.06
30130 H 108.51503555393009 111.11387138758906 14.928656944935426 H 0.0 **** 0.06
30131 C 143.8160208799145 99.4552943214762 56.81528173185819 C 0.0 **** -0.24
30132 H 144.04410577259227 100.5144761930658 56.932811381161684 H 0.0 **** 0.06
30133 H 142.8791095319849 99.22697708926992 57.32458084490082 H 0.0 **** 0.06
30134 H 144.62032387073515 98.8600694842606 57.24758055959015 H 0.0 **** 0.06
30135 H 143.72020866856587 99.22098881148685 55.755101967864306 H 0.0 **** 0.06
30136 C 77.271094037502 136.9582812900527 78.64914894033262 C 0.0 **** -0.24
30137 H 77.61328944531215 136.00223874151715 79.04612142052844 H 0.0 **** 0.06
30138 H 76.25883957556272 136.84844570506306 78.26089101597387 H 0.0 **** 0.06
30139 H 77.93631189793527 137.27566621880192 77.8463325349963 H 0.0 **** 0.06
30140 H 77.27729061768542 137.7049992836633 79.44314265820827 H 0.0 **** 0.06
30141 C 137.60995043918987 62.66849593328635 19.23268372547215 C 0.0 **** -0.24
30142 H 137.98564015147585 61.66925788906316 19.451239750487247 H 0.0 **** 0.06
30143 H 138.44335055354986 63.3707255305615 19.200434005729498 H 0.0 **** 0.06
30144 H 136.90914361322848 62.970682879517156 20.011177809162348 H 0.0 **** 0.06
30145 H 137.1019082462417 62.6623575337846 18.268026971934987 H 0.0 **** 0.06
30146 C 64.51352289116547 26.477020340025717 172.58643552932486 C 0.0 **** -0.24
30147 H 64.96432643865664 27.450028398620645 172.39258081822862 H 0.0 **** 0.06
30148 H 65.14301126645238 25.69431722074694 172.16174219366025 H 0.0 **** 0.06
30149 H 63.524757301729124 26.43735364750603 172.12920653540158 H 0.0 **** 0.06
30150 H 64.42325391671271 26.32696835662881 173.662487160094 H 0.0 **** 0.06
30151 C 150.17202747396928 29.026771905165234 71.888014332735 C 0.0 **** -0.24
30152 H 149.81747975054816 29.545471959622063 72.77905662539911 H 0.0 **** 0.06
30153 H 150.18668795247686 29.71884399885215 71.04626409548769 H 0.0 **** 0.06
30154 H 149.50408046038464 28.1952306081495 71.66301422776223 H 0.0 **** 0.06
30155 H 151.17777567857183 28.646772680206865 72.06573688773602 H 0.0 **** 0.06
30156 C 25.27966940148309 35.5808563840404 163.61736993291967 C 0.0 **** -0.24
30157 H 24.309554739831384 35.280427378360685 164.013831978587 H 0.0 **** 0.06
30158 H 25.177053643052005 36.524776042313874 163.0821654244972 H 0.0 **** 0.06
30159 H 25.645108051758 34.81363477430796 162.93477431345877 H 0.0 **** 0.06
30160 H 25.986004549890254 35.70258155512212 164.43845934376947 H 0.0 **** 0.06
30161 C 41.4609001866408 44.75956488390746 36.53484433789495 C 0.0 **** -0.24
30162 H 40.98321610882448 43.78310915603868 36.61169681356492 H 0.0 **** 0.06
30163 H 40.91187639570694 45.48059895563763 37.14060083497969 H 0.0 **** 0.06
30164 H 41.460058820331994 45.08366270195464 35.49429492890961 H 0.0 **** 0.06
30165 H 42.48762334094499 44.69138993456792 36.89304246479084 H 0.0 **** 0.06
30166 C 106.29453014703188 52.09226404037412 140.5770773093588 C 0.0 **** -0.24
30167 H 105.46853564998798 51.39733237493715 140.72599754271099 H 0.0 **** 0.06
30168 H 107.23005736620394 51.53609569522342 140.5137701901671 H 0.0 **** 0.06
30169 H 106.34022556501614 52.78741199121646 141.41524700166593 H 0.0 **** 0.06
30170 H 106.13887114775585 52.64799868719501 139.6519651617515 H 0.0 **** 0.06
30171 C 12.730523111240785 153.03461001086558 147.8010011007737 C 0.0 **** -0.24
30172 H 13.43444587233715 152.61871063828795 147.08026353491397 H 0.0 **** 0.06
30173 H 11.962663945391185 153.60036222444566 147.2724862526847 H 0.0 **** 0.06
30174 H 13.261512851045879 153.69527632705393 148.4863047553826 H 0.0 **** 0.06
30175 H 12.2652432823907 152.22481052022897 148.36286731857484 H 0.0 **** 0.06
30176 C 152.71940424655176 63.61535297147162 52.38917275657673 C 0.0 **** -0.24
30177 H 151.75177114613052 63.30126703304407 52.77939367743113 H 0.0 **** 0.06
30178 H 152.88258054215362 63.15961111128513 51.41296836399698 H 0.0 **** 0.06
30179 H 153.5064626890905 63.3008206893803 53.07454757180068 H 0.0 **** 0.06
30180 H 152.7359890354679 64.70158198070418 52.29070083909534 H 0.0 **** 0.06
30181 C 112.71635949377657 144.60341368829575 125.69895191421247 C 0.0 **** -0.24
30182 H 112.17418581376819 144.91200159000383 126.5929448677727 H 0.0 **** 0.06
30183 H 113.78820139863288 144.70413531883776 125.87135924073718 H 0.0 **** 0.06
30184 H 112.42149521788232 145.23422806024195 124.85952204138363 H 0.0 **** 0.06
30185 H 112.48058790056763 143.56309132709248 125.47182559883115 H 0.0 **** 0.06
30186 C 59.970949083406595 122.06265066658722 61.73245768468888 C 0.0 **** -0.24
30187 H 60.40599478127035 122.16315131193818 62.72627508056463 H 0.0 **** 0.06
30188 H 60.76516755513023 122.08960630190649 60.98506645260238 H 0.0 **** 0.06
30189 H 59.27753805206072 122.88469656785912 61.5549615937754 H 0.0 **** 0.06
30190 H 59.43824886827679 121.11466287121488 61.662652356258974 H 0.0 **** 0.06
30191 C 66.23657919982614 154.06630741004332 99.1801693624692 C 0.0 **** -0.24
30192 H 66.32703749270352 153.59634443237246 98.2005376463083 H 0.0 **** 0.06
30193 H 66.3846950928364 155.1415041550745 99.08147378887105 H 0.0 **** 0.06
30194 H 66.992111233023 153.65517057799536 99.85092273279514 H 0.0 **** 0.06
30195 H 65.24402901625824 153.870856548297 99.58687969847131 H 0.0 **** 0.06
30196 C 84.42116351081505 42.30700202057989 79.46922926672782 C 0.0 **** -0.24
30197 H 85.24675365232508 42.45332166874215 78.77316989627565 H 0.0 **** 0.06
30198 H 83.61689226712026 41.765256232763875 78.9706979492329 H 0.0 **** 0.06
30199 H 84.0527788724739 43.27677746598022 79.8047818666554 H 0.0 **** 0.06
30200 H 84.76822925134098 41.732652714833364 80.32826735474727 H 0.0 **** 0.06
30201 C 107.93347243072387 125.50957919638464 6.7929382185160705 C 0.0 **** -0.24
30202 H 107.15440852147415 126.27187701302876 6.799313829185735 H 0.0 **** 0.06
30203 H 107.79240033101684 124.85542657217343 5.932302869876565 H 0.0 **** 0.06
30204 H 107.87450977408386 124.92252628072902 7.709779797646746 H 0.0 **** 0.06
30205 H 108.91034477099277 125.98869511619287 6.730339964693229 H 0.0 **** 0.06
30206 C 41.176408701067615 74.0906326132457 48.360560572309396 C 0.0 **** -0.24
30207 H 40.65493394072931 74.30094264971854 47.42709127343035 H 0.0 **** 0.06
30208 H 41.71385481352253 73.14540274463315 48.27193543908264 H 0.0 **** 0.06
30209 H 40.45359931691884 74.02284549773401 49.17372026822113 H 0.0 **** 0.06
30210 H 41.88452805663722 74.89274759341214 48.569406762735284 H 0.0 **** 0.06
30211 C 86.86496236594485 169.274582298078 104.9784739893588 C 0.0 **** -0.24
30212 H 85.7994290724132 169.5000888761244 104.98700147123517 H 0.0 **** 0.06
30213 H 87.21115139663885 169.1167307805891 106.00133630644618 H 0.0 **** 0.06
30214 H 87.40953251644817 170.10831617475932 104.53544650195457 H 0.0 **** 0.06
30215 H 87.04112616188013 168.3727671981726 104.3920833097277 H 0.0 **** 0.06
30216 C 62.75080360429803 66.50009339429693 21.749764449352824 C 0.0 **** -0.24
30217 H 62.259065564139604 65.55651321233978 21.516234396601817 H 0.0 **** 0.06
30218 H 62.54797090112996 67.22104698297281 20.95739141777625 H 0.0 **** 0.06
30219 H 63.82601270566943 66.33936366340248 21.82815785216451 H 0.0 **** 0.06
30220 H 62.370101821305695 66.88273531800166 22.696577254139925 H 0.0 **** 0.06
30221 C 129.07364690087778 140.91803268587523 170.50236097661542 C 0.0 **** -0.24
30222 H 129.6207293116391 141.3575023814314 171.3369090159199 H 0.0 **** 0.06
30223 H 128.96263562857476 139.84600429864832 170.66624760965658 H 0.0 **** 0.06
30224 H 129.6238691135391 141.09005231378902 169.57718912542637 H 0.0 **** 0.06
30225 H 128.08927712179147 141.37982200580845 170.43103128285077 H 0.0 **** 0.06
30226 C 11.000887222616953 149.9317360184607 37.81069522933019 C 0.0 **** -0.24
30227 H 11.7631381995363 150.7106316701636 37.779037467992154 H 0.0 **** 0.06
30228 H 10.563758947578158 149.89224375073235 38.80755147191891 H 0.0 **** 0.06
30229 H 11.455020509512849 148.96994685886528 37.573666249583056 H 0.0 **** 0.06
30230 H 10.22365948532972 150.15588921669655 37.08058595452884 H 0.0 **** 0.06
30231 C 30.188802761447604 124.43587166987655 23.47117281127123 C 0.0 **** -0.24
30232 H 30.484052408983956 125.30479844438625 22.883481500466758 H 0.0 **** 0.06
30233 H 29.11790164701928 124.47866998592662 23.67067294234198 H 0.0 **** 0.06
30234 H 30.73484089279509 124.43245261578954 24.415152623944408 H 0.0 **** 0.06
30235 H 30.419041955826174 123.52635946759145 22.914992361261113 H 0.0 **** 0.06
30236 C 91.2560978745945 37.974000209544 140.2679308365311 C 0.0 **** -0.24
30237 H 90.9597934911215 36.945582283457895 140.06218716742706 H 0.0 **** 0.06
30238 H 91.40293413553252 38.1014990575553 141.3414448798532 H 0.0 **** 0.06
30239 H 90.47545531526475 38.65270446586243 139.92513658831467 H 0.0 **** 0.06
30240 H 92.18619804531482 38.197038126954396 139.74526178024064 H 0.0 **** 0.06
30241 C 46.40828961927997 66.95953048816362 33.837988740295685 C 0.0 **** -0.24
30242 H 45.97258294175077 66.33442922081049 34.61831580046004 H 0.0 **** 0.06
30243 H 45.64246148528986 67.62214427115184 33.43432496963669 H 0.0 **** 0.06
30244 H 46.79747003991076 66.32518715390383 33.04069183229069 H 0.0 **** 0.06
30245 H 47.21909070362477 67.55296547231046 34.258858871008016 H 0.0 **** 0.06
30246 C 91.72439669252404 87.11177659544421 89.77994506863575 C 0.0 **** -0.24
30247 H 92.43674561059626 86.40954133676311 90.21332579450291 H 0.0 **** 0.06
30248 H 91.91988152651086 88.11220286938915 90.16679924327781 H 0.0 **** 0.06
30249 H 90.71136280911735 86.81036515364889 90.04390650787741 H 0.0 **** 0.06
30250 H 91.83182209043116 87.11425710156665 88.69504100427758 H 0.0 **** 0.06
30251 C 7.329037573469456 43.4265123605165 149.73245031019522 C 0.0 **** -0.24
30252 H 6.514480404416361 43.499018323791375 149.0115490002952 H 0.0 **** 0.06
30253 H 7.95060742190325 44.31874509014969 149.6684360877228 H 0.0 **** 0.06
30254 H 7.932469291795819 42.545882594187276 149.51255133801436 H 0.0 **** 0.06
30255 H 6.916734694873078 43.34200962765527 150.73844426591583 H 0.0 **** 0.06
30256 C 119.75823958051257 47.66255941281409 90.49240204136741 C 0.0 **** -0.24
30257 H 119.67554118759213 47.086226957941676 91.41281825599395 H 0.0 **** 0.06
30258 H 119.94430371528574 46.98845959683166 89.65577023139242 H 0.0 **** 0.06
30259 H 120.58404675343488 48.369809903975835 90.57968026159173 H 0.0 **** 0.06
30260 H 118.83008880082497 48.20846547930776 90.32060883269885 H 0.0 **** 0.06
30261 C 167.6485685044833 122.6375427872955 130.75325882229293 C 0.0 **** -0.24
30262 H 167.4811528348685 122.272113202861 129.73925071372608 H 0.0 **** 0.06
30263 H 166.69417791738869 122.92087991087405 131.1985473844362 H 0.0 **** 0.06
30264 H 168.30707708070395 123.50642961815115 130.72086502081208 H 0.0 **** 0.06
30265 H 168.11126864468105 121.85309793082595 131.3503567815147 H 0.0 **** 0.06
30266 C 32.6899336085729 2.5910070535638 147.51562105251253 C 0.0 **** -0.24
30267 H 33.679832849164924 2.854788968381172 147.88617299658264 H 0.0 **** 0.06
30268 H 31.94133566559651 2.8434265938942644 148.26733689700364 H 0.0 **** 0.06
30269 H 32.65220715079103 1.5206678673924046 147.31053094031182 H 0.0 **** 0.06
30270 H 32.48562279601242 3.143287163161233 146.5985311173001 H 0.0 **** 0.06
30271 C 59.53629848119171 57.26565391768395 88.706246680432 C 0.0 **** -0.24
30272 H 59.00879684782764 56.60029852935821 89.39002327429762 H 0.0 **** 0.06
30273 H 59.309341595388716 56.98521001753545 87.67829826708419 H 0.0 **** 0.06
30274 H 60.6094067304591 57.185313032726754 88.87694579023957 H 0.0 **** 0.06
30275 H 59.216977058332986 58.29354627156886 88.88206010450267 H 0.0 **** 0.06
30276 C 64.61355833920061 155.39805673057208 42.34713870825556 C 0.0 **** -0.24
30277 H 64.9731466352489 155.68867537827634 43.334342461511085 H 0.0 **** 0.06
30278 H 65.45011891826704 155.038753634089 41.74733216934243 H 0.0 **** 0.06
30279 H 64.15855791043379 156.25998527011905 41.8581294908044 H 0.0 **** 0.06
30280 H 63.87175343300191 154.60544153543256 42.44916733911748 H 0.0 **** 0.06
30281 C 112.95496749652301 86.75546893494663 108.52345639163474 C 0.0 **** -0.24
30282 H 112.49395268016113 85.7769555232033 108.65803361124406 H 0.0 **** 0.06
30283 H 112.61360610031056 87.42973093866101 109.31008043379524 H 0.0 **** 0.06
30284 H 112.6727830280781 87.15995212645026 107.55106990611122 H 0.0 **** 0.06
30285 H 114.0394602163519 86.6561564357412 108.57502933389546 H 0.0 **** 0.06
30286 C 171.07516910968957 48.10292705896602 103.7204628704327 C 0.0 **** -0.24
30287 H 172.08247070748195 48.08738191678154 104.13688696961026 H 0.0 **** 0.06
30288 H 171.05713118907357 47.531840932344934 102.79187336353769 H 0.0 **** 0.06
30289 H 170.7806781984291 49.13281731190945 103.5200923646558 H 0.0 **** 0.06
30290 H 170.38069008230843 47.658648333156975 104.43393361036061 H 0.0 **** 0.06
30291 C 45.03901076811505 20.582554660349217 171.59407697074514 C 0.0 **** -0.24
30292 H 44.482796145002965 20.53182796426165 170.6574685624206 H 0.0 **** 0.06
30293 H 45.71188549233594 21.439849577591076 171.5711811367972 H 0.0 **** 0.06
30294 H 45.61907525095975 19.667920774515068 171.72134152602646 H 0.0 **** 0.06
30295 H 44.34170286101238 20.68812212235011 172.42421451008946 H 0.0 **** 0.06
30296 C 134.87912258245737 49.45019177921287 40.53731175004401 C 0.0 **** -0.24
30297 H 133.89092114528756 49.84650255949765 40.772279598703165 H 0.0 **** 0.06
30298 H 134.77391709413598 48.517351028662915 39.98331073339722 H 0.0 **** 0.06
30299 H 135.42507311256693 49.26565603677197 41.46230026497119 H 0.0 **** 0.06
30300 H 135.42476618047664 50.172840053082325 39.930898764077654 H 0.0 **** 0.06
30301 C 11.371058804476775 88.67591871345803 127.96640706317189 C 0.0 **** -0.24
30302 H 10.557884566528287 88.22964616282081 128.53964844326651 H 0.0 **** 0.06
30303 H 11.856638052407334 89.44631435859947 128.56577050965117 H 0.0 **** 0.06
30304 H 10.971533262893672 89.12129767642529 127.055787998434 H 0.0 **** 0.06
30305 H 12.097060234320963 87.90542425978975 127.7072075246518 H 0.0 **** 0.06
30306 C 23.478364004368643 116.0089152402266 16.825102734652575 C 0.0 **** -0.24
30307 H 24.097489571063413 115.12859952958075 16.652455792533743 H 0.0 **** 0.06
30308 H 22.579968925866545 115.94608279620317 16.210675712689124 H 0.0 **** 0.06
30309 H 24.03918313510693 116.90455784306278 16.5591452253787 H 0.0 **** 0.06
30310 H 23.197105893298108 116.05489263065675 17.876528005794142 H 0.0 **** 0.06
30311 C 149.883230779168 88.45574360464366 111.1496996475395 C 0.0 **** -0.24
30312 H 149.90743386941807 89.18385159606112 111.96018600440425 H 0.0 **** 0.06
30313 H 150.67384857358996 88.6817154176631 110.43437565086307 H 0.0 **** 0.06
30314 H 148.91598699888607 88.50027209950258 110.6498438202998 H 0.0 **** 0.06
30315 H 150.03578771921036 87.45613225014688 111.55638711860601 H 0.0 **** 0.06
30316 C 0.16677090471179667 120.28711310530733 153.4103171194492 C 0.0 **** -0.24
30317 H 0.967292913457527 120.4251206460792 152.6832238450913 H 0.0 **** 0.06
30318 H -0.0834787929909453 121.24803393730105 153.86134313334338 H 0.0 **** 0.06
30319 H 0.4973352597664302 119.59672543225435 154.18704054766494 H 0.0 **** 0.06
30320 H -0.7119318230662941 119.88037691394948 152.91075196417844 H 0.0 **** 0.06
30321 C 164.71852510871457 13.404812486048513 111.47108023199056 C 0.0 **** -0.24
30322 H 163.96341526167208 12.639199666899913 111.64797936244517 H 0.0 **** 0.06
30323 H 164.35154336964376 14.110597165865329 110.725730259848 H 0.0 **** 0.06
30324 H 165.63319523238343 12.936138345871655 111.10902322054446 H 0.0 **** 0.06
30325 H 164.9238355919733 13.93383623159042 112.40210960186707 H 0.0 **** 0.06
30326 C 140.52960746626155 160.00465470259616 145.14159923173162 C 0.0 **** -0.24
30327 H 141.13234050731168 159.75282731340383 146.01451964552928 H 0.0 **** 0.06
30328 H 140.46675414864438 161.08898095824193 145.04511481580306 H 0.0 **** 0.06
30329 H 139.52825950594863 159.5906203878646 145.2607673473704 H 0.0 **** 0.06
30330 H 140.99216230201984 159.586370953743 144.24794107630638 H 0.0 **** 0.06
30331 C 27.807084318447608 43.7204422249479 64.20500970971443 C 0.0 **** -0.24
30332 H 28.781459676343047 44.20871428520505 64.24097177673474 H 0.0 **** 0.06
30333 H 27.401561275302754 43.793158100371215 63.1958483504186 H 0.0 **** 0.06
30334 H 27.13011013917682 44.20909750141024 64.90642056863811 H 0.0 **** 0.06
30335 H 27.917329500095775 42.67035786132374 64.4788711025767 H 0.0 **** 0.06
30336 C 19.03602059256943 47.72876964760917 79.33380405398432 C 0.0 **** -0.24
30337 H 19.436340749902286 48.25283738476432 80.20159490416746 H 0.0 **** 0.06
30338 H 19.61153662116044 47.99859654948165 78.44851318683513 H 0.0 **** 0.06
30339 H 17.99301639469175 48.01057681773963 79.1892940246059 H 0.0 **** 0.06
30340 H 19.102192042481448 46.65293413629348 79.49680860708762 H 0.0 **** 0.06
30341 C 161.91349827530564 19.477038268800086 138.1367420247616 C 0.0 **** -0.24
30342 H 161.41868002477605 18.712190302991957 137.53834360563562 H 0.0 **** 0.06
30343 H 161.24406106327098 19.80685474284288 138.93160938186958 H 0.0 **** 0.06
30344 H 162.17046264671694 20.324890745773118 137.50309257398143 H 0.0 **** 0.06
30345 H 162.821553661106 19.06266852829892 138.57616250054807 H 0.0 **** 0.06
30346 C 154.4086545690948 131.69345097279964 73.9917983379721 C 0.0 **** -0.24
30347 H 155.2911799903978 132.3041371072244 74.18291483884998 H 0.0 **** 0.06
30348 H 153.64854493636366 132.29834867860515 73.49692935568685 H 0.0 **** 0.06
30349 H 154.016445269244 131.31744084988586 74.93726778017218 H 0.0 **** 0.06
30350 H 154.6785667323388 130.85417215851672 73.35102952371031 H 0.0 **** 0.06
30351 C 92.43664974905124 14.362430871654624 11.594355890893667 C 0.0 **** -0.24
30352 H 92.09219697339091 14.882630360160732 12.488507992591394 H 0.0 **** 0.06
30353 H 91.80751723962277 14.638241986776762 10.748339528176274 H 0.0 **** 0.06
30354 H 92.38027429858647 13.286675326046776 11.756093200663564 H 0.0 **** 0.06
30355 H 93.46927191959475 14.645157402667508 11.38622279080247 H 0.0 **** 0.06
30356 C 39.88121126525547 94.10582413576373 162.02311237658228 C 0.0 **** -0.24
30357 H 40.533859398828014 94.37293542026521 162.85508605337796 H 0.0 **** 0.06
30358 H 38.840650759442596 94.17107212654292 162.34302916868597 H 0.0 **** 0.06
30359 H 40.10025642903058 93.08669890163122 161.70308709033532 H 0.0 **** 0.06
30360 H 40.05084635162697 94.79250406642092 161.19357165736497 H 0.0 **** 0.06
30361 C 31.822542026366648 63.02814917454454 12.496081602480587 C 0.0 **** -0.24
30362 H 32.7991461470441 62.94219894266378 12.972987408204183 H 0.0 **** 0.06
30363 H 31.803073136975968 62.414633857153206 11.595682754296476 H 0.0 **** 0.06
30364 H 31.63953512158062 64.06951779673773 12.231648163024985 H 0.0 **** 0.06
30365 H 31.050730662567076 62.687545952250105 13.185723412793834 H 0.0 **** 0.06
30366 C 33.339094571177554 84.87196789132159 131.55079268292633 C 0.0 **** -0.24
30367 H 33.377225168969574 84.89557343614783 132.64043531018177 H 0.0 **** 0.06
30368 H 32.32732650359867 85.10292633040234 131.2170101625132 H 0.0 **** 0.06
30369 H 33.62010528567404 83.87962854462627 131.19971754510692 H 0.0 **** 0.06
30370 H 34.03278312853038 85.61045850014962 131.14784105488178 H 0.0 **** 0.06
30371 C 164.0182180419996 105.1788245004038 78.91891968777745 C 0.0 **** -0.24
30372 H 163.02308121243271 104.78999748527869 79.13633966385564 H 0.0 **** 0.06
30373 H 164.61467862343284 105.1788652279055 79.83064219350516 H 0.0 **** 0.06
30374 H 163.9344712035367 106.19739199141748 78.53919355674084 H 0.0 **** 0.06
30375 H 164.4978276552785 104.54927178212424 78.16968329783525 H 0.0 **** 0.06
30376 C 147.075759144577 19.60390475492173 124.55455242015242 C 0.0 **** -0.24
30377 H 146.66941021751967 18.655083360682 124.20385496677105 H 0.0 **** 0.06
30378 H 147.6155052312401 19.444173182145875 125.48857554800267 H 0.0 **** 0.06
30379 H 146.2612824098269 20.3084143277012 124.72105790550506 H 0.0 **** 0.06
30380 H 147.75743815508707 20.005811849367177 123.80499882132827 H 0.0 **** 0.06
30381 C 68.5242828595321 24.622790750368203 53.81003871029077 C 0.0 **** -0.24
30382 H 67.86088297025347 23.812475893787834 54.11327066882984 H 0.0 **** 0.06
30383 H 68.26628272345319 25.528982749667712 54.359777945860856 H 0.0 **** 0.06
30384 H 68.41280287956478 24.802406370823995 52.74030759760876 H 0.0 **** 0.06
30385 H 69.55583442377103 24.347154527653068 54.02633525050152 H 0.0 **** 0.06
30386 C 66.21843129822673 54.149752188312476 114.934991774839 C 0.0 **** -0.24
30387 H 66.33722421140794 55.210947059502246 114.71489204614235 H 0.0 **** 0.06
30388 H 66.9208787470019 53.57384384839274 114.33203707817239 H 0.0 **** 0.06
30389 H 65.20017316166955 53.84171270933925 114.69931358570247 H 0.0 **** 0.06
30390 H 66.4165532064936 53.97363009246402 115.99213835608074 H 0.0 **** 0.06
30391 C 21.200327905159384 116.77968228022522 31.358675904064228 C 0.0 **** -0.24
30392 H 20.69793327880518 117.74484062399196 31.430864718488664 H 0.0 **** 0.06
30393 H 22.235592748499357 116.88425781897865 31.6821953401344 H 0.0 **** 0.06
30394 H 21.17499240618588 116.4341161734493 30.324520498249058 H 0.0 **** 0.06
30395 H 20.69042952396785 116.05597831429105 31.995334700298088 H 0.0 **** 0.06
30396 C 9.669433368896875 5.8387734911001345 84.78640151703144 C 0.0 **** -0.24
30397 H 10.703073404497871 5.997991548266413 85.0931278850713 H 0.0 **** 0.06
30398 H 9.62725443004183 5.709497552045761 83.70474636682869 H 0.0 **** 0.06
30399 H 9.069508253126855 6.7026957977765065 85.07248243013267 H 0.0 **** 0.06
30400 H 9.278356832676678 4.946561569705722 85.27549068848779 H 0.0 **** 0.06
30401 C 68.04365380868988 16.92331014016178 112.87756044780741 C 0.0 **** -0.24
30402 H 68.30686783300482 17.907466304781558 113.26289427253064 H 0.0 **** 0.06
30403 H 66.96678216328371 16.873659425006238 112.71299592715954 H 0.0 **** 0.06
30404 H 68.3370247639251 16.16015653738188 113.59965621444547 H 0.0 **** 0.06
30405 H 68.56447463804672 16.750608035719935 111.93639585144001 H 0.0 **** 0.06
30406 C 166.57913872192597 101.82681388455194 72.86324736086995 C 0.0 **** -0.24
30407 H 166.7966263721445 100.93458535139024 73.45045222619332 H 0.0 **** 0.06
30408 H 166.57526814123804 102.69913026491975 73.51735695102555 H 0.0 **** 0.06
30409 H 165.60293289970645 101.72120043091968 72.39065646109943 H 0.0 **** 0.06
30410 H 167.34375787167568 101.95199723412588 72.09539586460978 H 0.0 **** 0.06
30411 C 35.610008897545185 155.91745508911808 147.92081722313503 C 0.0 **** -0.24
30412 H 34.82841709026559 155.8307507625799 148.67468375834235 H 0.0 **** 0.06
30413 H 35.42718129604185 155.19526952237655 147.12425818644596 H 0.0 **** 0.06
30414 H 36.578954765552396 155.71694631515774 148.37837850906854 H 0.0 **** 0.06
30415 H 35.60550507553086 156.9255558974711 147.50650978147556 H 0.0 **** 0.06
30416 C 163.30730450946163 130.67860858385234 108.63372063706726 C 0.0 **** -0.24
30417 H 164.33124971099565 130.50144940468618 108.30686593713472 H 0.0 **** 0.06
30418 H 163.09828692574342 131.748323102256 108.60823145332344 H 0.0 **** 0.06
30419 H 163.1821474930002 130.30799489113508 109.65184805488349 H 0.0 **** 0.06
30420 H 162.61825135743143 130.15751709134776 107.96987685659099 H 0.0 **** 0.06
30421 C 88.80838282723363 37.13543668100908 50.008024908699184 C 0.0 **** -0.24
30422 H 89.6662443827741 36.535746403638825 50.31437331187817 H 0.0 **** 0.06
30423 H 88.33103514561918 36.67264915844942 49.1446124531449 H 0.0 **** 0.06
30424 H 89.14224890716554 38.138924381606955 49.74575780001729 H 0.0 **** 0.06
30425 H 88.09433065195725 37.19344763063509 50.83034506730962 H 0.0 **** 0.06
30426 C 153.16247268876174 107.61059880325786 4.25608199540909 C 0.0 **** -0.24
30427 H 153.47488575782722 108.65356971967464 4.307355033923187 H 0.0 **** 0.06
30428 H 152.0747721143919 107.55580645984585 4.30335197499582 H 0.0 **** 0.06
30429 H 153.5910724313688 107.061330860348 5.094149512204325 H 0.0 **** 0.06
30430 H 153.5090222930636 107.1729406290604 3.3201135838246216 H 0.0 **** 0.06
30431 C 108.53771417515705 109.8823119660988 159.39734667027807 C 0.0 **** -0.24
30432 H 108.51633027092655 109.49166489223106 160.41491228904744 H 0.0 **** 0.06
30433 H 109.03097629182216 110.85385503531413 159.39137090020415 H 0.0 **** 0.06
30434 H 107.517612104221 109.98985787071811 159.02866546893188 H 0.0 **** 0.06
30435 H 109.08462001063629 109.19181918650474 158.7546765091111 H 0.0 **** 0.06
30436 C 124.4526492974841 51.40128544618041 108.2110521356561 C 0.0 **** -0.24
30437 H 124.18761410777415 50.41173712116836 108.58405435956817 H 0.0 **** 0.06
30438 H 123.70412902056654 52.123894278457826 108.53762691018846 H 0.0 **** 0.06
30439 H 124.48937223510734 51.38171003185626 107.12251165707215 H 0.0 **** 0.06
30440 H 125.42880394647477 51.68791243968367 108.60326033805907 H 0.0 **** 0.06
30441 C 55.0769801234988 117.77279287912324 115.18985928971983 C 0.0 **** -0.24
30442 H 54.521505883286636 118.44247850768465 114.53376349234651 H 0.0 **** 0.06
30443 H 54.469173141756244 116.89516447297933 115.41086211749678 H 0.0 **** 0.06
30444 H 55.31750712233844 118.29126719748342 116.11871038985254 H 0.0 **** 0.06
30445 H 55.998274264016885 117.46360927104831 114.69753343144458 H 0.0 **** 0.06
30446 C 3.60914957844048 97.89972887382876 109.95044394930125 C 0.0 **** -0.24
30447 H 2.701137339991135 98.49073702452083 109.82865174987509 H 0.0 **** 0.06
30448 H 3.8158914125141337 97.76666188865786 111.01250100295991 H 0.0 **** 0.06
30449 H 4.444725482264488 98.41892078874093 109.47953961884596 H 0.0 **** 0.06
30450 H 3.4749458765667782 96.92632966689814 109.4808638419054 H 0.0 **** 0.06
30451 C 91.29371512890134 130.9800927577791 60.80609728298299 C 0.0 **** -0.24
30452 H 91.81252504131544 130.64177331920223 61.7030423304447 H 0.0 **** 0.06
30453 H 90.37939540513094 130.4001125482032 60.675251485689074 H 0.0 **** 0.06
30454 H 91.93979894049744 130.84337379512806 59.939407144951986 H 0.0 **** 0.06
30455 H 91.0422758513165 132.03633386270673 60.90928760436553 H 0.0 **** 0.06
30456 C 134.95881248995724 15.798715085706561 34.465680477445275 C 0.0 **** -0.24
30457 H 135.24574055729656 16.635687356768912 33.82954458758259 H 0.0 **** 0.06
30458 H 134.33254640014113 16.161095735309026 35.28112774440514 H 0.0 **** 0.06
30459 H 135.85370739509455 15.329584857776126 34.87505455371736 H 0.0 **** 0.06
30460 H 134.40269845514192 15.06964716091337 33.87759180572982 H 0.0 **** 0.06
30461 C 42.305127970614365 34.511075560436524 75.78694018662583 C 0.0 **** -0.24
30462 H 41.96320335552031 33.873676670783595 74.97179640457307 H 0.0 **** 0.06
30463 H 42.661436960818975 35.45761079165672 75.38195116082068 H 0.0 **** 0.06
30464 H 43.116432079094466 34.0144895749431 76.32002105507354 H 0.0 **** 0.06
30465 H 41.47894704400977 34.696873356769714 76.47382188149652 H 0.0 **** 0.06
30466 C 3.6868035486024553 10.608599429189212 4.359382484532944 C 0.0 **** -0.24
30467 H 4.727524712252318 10.738595749789908 4.655233097362299 H 0.0 **** 0.06
30468 H 3.286717671792701 9.707570099711688 4.825223280017013 H 0.0 **** 0.06
30469 H 3.626222968928289 10.515143901508452 3.275549372527422 H 0.0 **** 0.06
30470 H 3.106914629655904 11.473161248354756 4.682926757221281 H 0.0 **** 0.06
30471 C 128.38592629677828 8.562920060918316 76.96208866734393 C 0.0 **** -0.24
30472 H 129.011714050314 9.332672612217252 77.41511396185881 H 0.0 **** 0.06
30473 H 127.57670165175 8.305329134662493 77.64524060343886 H 0.0 **** 0.06
30474 H 128.988741340208 7.677074557936358 76.76152705654974 H 0.0 **** 0.06
30475 H 127.96852710899685 8.937381776860214 76.02768912174598 H 0.0 **** 0.06
30476 C 93.44958864186168 158.6178566819078 81.60231413926454 C 0.0 **** -0.24
30477 H 93.31350286671426 159.6634740912472 81.32441468452947 H 0.0 **** 0.06
30478 H 93.75314820608446 158.04611863680748 80.72532304182204 H 0.0 **** 0.06
30479 H 92.51199798713813 158.2210158728783 81.98981805255676 H 0.0 **** 0.06
30480 H 94.22064616866527 158.54506530071654 82.36942292899255 H 0.0 **** 0.06
30481 C 37.4627189711303 32.19802528976332 131.0279715705881 C 0.0 **** -0.24
30482 H 37.35238480206242 32.761236102834886 130.10124715693124 H 0.0 **** 0.06
30483 H 36.51272199042022 31.727503637705922 131.2813157942212 H 0.0 **** 0.06
30484 H 37.760085299340176 32.873260462495494 131.8300494359346 H 0.0 **** 0.06
30485 H 38.22595507873689 31.430417027161496 130.89707693314102 H 0.0 **** 0.06
30486 C 85.6640092076837 91.69560023409394 84.37708127473569 C 0.0 **** -0.24
30487 H 85.17619452012974 92.6405333935461 84.14002999222538 H 0.0 **** 0.06
30488 H 86.69049226173348 91.88550984789512 84.69067346618007 H 0.0 **** 0.06
30489 H 85.66561149879294 91.05567772541717 83.49439230591739 H 0.0 **** 0.06
30490 H 85.12315081088059 91.20022473530042 85.18389817867865 H 0.0 **** 0.06
30491 C 166.93554039736676 39.85029147964181 4.153431262702611 C 0.0 **** -0.24
30492 H 166.41525991054687 39.878797440913104 3.195772229149611 H 0.0 **** 0.06
30493 H 167.48361801417644 40.7824531317944 4.29639563355704 H 0.0 **** 0.06
30494 H 167.63361480296703 39.012981621862025 4.162679068223582 H 0.0 **** 0.06
30495 H 166.20966244346585 39.7280121912994 4.957522778270345 H 0.0 **** 0.06
30496 C 27.475414065872116 123.08571027885085 78.42056206868217 C 0.0 **** -0.24
30497 H 27.75792183556547 122.15306032264147 77.93180485266376 H 0.0 **** 0.06
30498 H 28.222913166000012 123.84890566869825 78.20471705691355 H 0.0 **** 0.06
30499 H 27.416701504371417 122.92725839490845 79.49711583157867 H 0.0 **** 0.06
30500 H 26.505066680700367 123.41104616302374 78.04703072167543 H 0.0 **** 0.06
30501 C 109.78167201251918 143.4185279968068 4.456860293358176 C 0.0 **** -0.24
30502 H 109.69990027334603 142.6467924535262 5.222132018539355 H 0.0 **** 0.06
30503 H 109.71134171217355 142.96010555613086 3.4701781182137665 H 0.0 **** 0.06
30504 H 110.74130026310624 143.9264180265415 4.554781345535503 H 0.0 **** 0.06
30505 H 108.97351914839732 144.13955213470442 4.580595216631565 H 0.0 **** 0.06
30506 C 104.52045790842894 129.50259878946312 107.43764972578617 C 0.0 **** -0.24
30507 H 104.01844473688226 129.60225884593035 106.47475468370126 H 0.0 **** 0.06
30508 H 104.06505197438594 128.68974902414843 108.00261596994838 H 0.0 **** 0.06
30509 H 104.42142369996796 130.4339932603533 107.995851098255 H 0.0 **** 0.06
30510 H 105.57659379362482 129.28706950470124 107.27478072075036 H 0.0 **** 0.06
30511 C 71.52620755313119 161.34664785972853 115.70070812352412 C 0.0 **** -0.24
30512 H 71.95042483287037 160.40798561346776 115.34558836114832 H 0.0 **** 0.06
30513 H 70.45536191434044 161.22310366686236 115.86068818590172 H 0.0 **** 0.06
30514 H 71.69540739620287 162.12608919603124 114.95774863431484 H 0.0 **** 0.06
30515 H 72.00407208839545 161.62856611450582 116.63850274172012 H 0.0 **** 0.06
30516 C 118.87292958170633 22.45464316933061 124.87303002910005 C 0.0 **** -0.24
30517 H 119.85802300522784 22.246972342656903 125.29102280886974 H 0.0 **** 0.06
30518 H 118.73090436001661 21.86616610393895 123.96704672791924 H 0.0 **** 0.06
30519 H 118.79621808297037 23.515395009207595 124.63455977762104 H 0.0 **** 0.06
30520 H 118.10680037568864 22.19032950915772 125.60191240182448 H 0.0 **** 0.06
30521 C 87.69177252982732 74.20572052618711 120.27704908070697 C 0.0 **** -0.24
30522 H 87.5050977750248 74.24736601710472 121.34994253407686 H 0.0 **** 0.06
30523 H 88.25141927177678 73.2997315594955 120.04075741685728 H 0.0 **** 0.06
30524 H 88.26815481061256 75.07839926421225 119.97392467778434 H 0.0 **** 0.06
30525 H 86.74113457992847 74.19469900155886 119.74394102652917 H 0.0 **** 0.06
30526 C 113.83477178514238 92.03890178684111 73.45506745722233 C 0.0 **** -0.24
30527 H 113.889615164172 92.44004629923379 72.44357280104849 H 0.0 **** 0.06
30528 H 114.83033226991569 91.73540639262532 73.78095100929357 H 0.0 **** 0.06
30529 H 113.16943729356302 91.17504931895473 73.46723872596638 H 0.0 **** 0.06
30530 H 113.44879403168059 92.8033426934754 74.12876949414603 H 0.0 **** 0.06
30531 C 151.44377812961625 163.59580297981535 126.92754404750184 C 0.0 **** -0.24
30532 H 152.29949311856438 163.4674942892599 126.26440987361894 H 0.0 **** 0.06
30533 H 151.155997435713 162.6286877177609 127.33980916468818 H 0.0 **** 0.06
30534 H 150.60871959544164 164.01564343001172 126.3668351902798 H 0.0 **** 0.06
30535 H 151.71227941128615 164.2714312188847 127.7394410356082 H 0.0 **** 0.06
30536 C 165.63157905776274 52.143829128184336 16.42499582275221 C 0.0 **** -0.24
30537 H 165.23924011074098 52.85588859119886 17.151777555202102 H 0.0 **** 0.06
30538 H 166.3115703400818 51.45236898505135 16.923483471929615 H 0.0 **** 0.06
30539 H 166.167962943894 52.681953014446094 15.643964983300407 H 0.0 **** 0.06
30540 H 164.8064806559015 51.5869741129402 15.981375160136821 H 0.0 **** 0.06
30541 C 61.37485882389062 77.32406478744143 153.04268058041407 C 0.0 **** -0.24
30542 H 62.19583149830967 77.77824364348814 153.59674609653342 H 0.0 **** 0.06
30543 H 60.87620721744217 78.0857709145619 152.4433371603397 H 0.0 **** 0.06
30544 H 60.661972784793505 76.88756837613283 153.7425695548498 H 0.0 **** 0.06
30545 H 61.765689675111815 76.54516652658538 152.3893691093945 H 0.0 **** 0.06
30546 C 152.64178640675027 95.6972789618537 42.46249377275592 C 0.0 **** -0.24
30547 H 153.2977450082774 96.38543310276438 42.99699299281494 H 0.0 **** 0.06
30548 H 153.2417003956876 95.03980446577697 41.83373892296322 H 0.0 **** 0.06
30549 H 151.94923183481913 96.26417876371119 41.84116379971343 H 0.0 **** 0.06
30550 H 152.07944905771416 95.10034405525639 43.18148865969707 H 0.0 **** 0.06
30551 C 50.28990012777217 139.9633772603521 75.2591933507606 C 0.0 **** -0.24
30552 H 49.48490916345425 140.4742891578795 74.73053488157143 H 0.0 **** 0.06
30553 H 50.47263840472441 140.4622536805071 76.21108632377496 H 0.0 **** 0.06
30554 H 51.19579084634334 139.99083465044768 74.65429149071309 H 0.0 **** 0.06
30555 H 50.00546193270169 138.92729717793569 75.44089404119529 H 0.0 **** 0.06
30556 C 124.99228626356381 170.19947184291874 13.89968598504933 C 0.0 **** -0.24
30557 H 125.41824647318052 170.34345741968622 12.906587678061214 H 0.0 **** 0.06
30558 H 124.50969797355748 171.12075485120909 14.224504887994101 H 0.0 **** 0.06
30559 H 125.78463282101012 169.9363428866003 14.599972535024449 H 0.0 **** 0.06
30560 H 124.25627631569628 169.39523457125898 13.865553941394921 H 0.0 **** 0.06
30561 C 108.32174437425758 74.11592060174713 108.67232309427135 C 0.0 **** -0.24
30562 H 107.82832527764066 73.30945373489352 109.21347550674608 H 0.0 **** 0.06
30563 H 107.86826001311312 75.06831475830337 108.94743125068584 H 0.0 **** 0.06
30564 H 108.20853105296857 73.95645581499122 107.59964610073365 H 0.0 **** 0.06
30565 H 109.38089166920176 74.12962492301655 108.92772348441605 H 0.0 **** 0.06
30566 C 134.01255194317503 89.67079829040722 43.8885983711387 C 0.0 **** -0.24
30567 H 134.75650557573016 90.05652999447757 43.19237125375719 H 0.0 **** 0.06
30568 H 134.27861812750496 88.65398972773806 44.17827635005824 H 0.0 **** 0.06
30569 H 133.033578412039 89.66820503076026 43.410038796832055 H 0.0 **** 0.06
30570 H 133.98155213316457 90.30486328529618 44.77506427523707 H 0.0 **** 0.06
30571 C 26.62738331865858 33.220279424570606 67.14445385214594 C 0.0 **** -0.24
30572 H 27.578229672444742 33.19726933553659 67.6761425869982 H 0.0 **** 0.06
30573 H 26.495553217065115 34.196044765911836 66.67653824281234 H 0.0 **** 0.06
30574 H 25.813977893306323 33.04255845492844 67.84810082498893 H 0.0 **** 0.06
30575 H 26.621195575210358 32.445135400923675 66.37832029177756 H 0.0 **** 0.06
30576 C 16.22951441493194 67.54251624945559 61.09410565300014 C 0.0 **** -0.24
30577 H 15.376456023536292 67.73894831331332 61.744449440532975 H 0.0 **** 0.06
30578 H 17.080410042456606 68.14096764017769 61.42026475749053 H 0.0 **** 0.06
30579 H 15.971974826082516 67.80440308763296 60.067829456926546 H 0.0 **** 0.06
30580 H 16.488688495948537 66.4850977662082 61.14595282246438 H 0.0 **** 0.06
30581 C 67.48791881216081 89.1214401628031 142.96213714414353 C 0.0 **** -0.24
30582 H 67.99052430067393 89.31406645120744 142.0135207503864 H 0.0 **** 0.06
30583 H 66.41114461179937 89.07539904542934 142.799091987251 H 0.0 **** 0.06
30584 H 67.71583581231232 89.92517368560178 143.6624102739716 H 0.0 **** 0.06
30585 H 67.8356593584522 88.17328698351132 143.3717665318057 H 0.0 **** 0.06
30586 C 63.337457372468606 68.97165184182944 112.07476647447876 C 0.0 **** -0.24
30587 H 63.04895854749927 67.93992059292961 112.2773997922051 H 0.0 **** 0.06
30588 H 63.0191509858393 69.60699901481377 112.90144912643112 H 0.0 **** 0.06
30589 H 62.86173426997857 69.30726744913014 111.15416024312486 H 0.0 **** 0.06
30590 H 64.42088961810316 69.03160031684921 111.96677128085383 H 0.0 **** 0.06
30591 C 107.5153386422854 40.43973000441444 116.9366739193029 C 0.0 **** -0.24
30592 H 108.55924583137792 40.69667294039239 116.7604914658329 H 0.0 **** 0.06
30593 H 106.92793859205185 41.353657302503024 117.03087206034161 H 0.0 **** 0.06
30594 H 107.4342148573188 39.859289678144094 117.85643811845279 H 0.0 **** 0.06
30595 H 107.13884178860258 39.85094618900011 116.10090667302455 H 0.0 **** 0.06
30596 C 58.814049302499996 49.85249126950775 144.75153042874916 C 0.0 **** -0.24
30597 H 59.362566109784865 49.38016856828955 143.9367453309696 H 0.0 **** 0.06
30598 H 58.35167275455677 49.08418302402933 145.37132842542076 H 0.0 **** 0.06
30599 H 58.04169483005822 50.50187208235775 144.33997690869 H 0.0 **** 0.06
30600 H 59.50115359411873 50.44320955604171 145.35710930435204 H 0.0 **** 0.06
30601 C 152.3603108805006 8.487845492873923 85.11639619453749 C 0.0 **** -0.24
30602 H 151.60937961427535 9.277265964997959 85.08678652360891 H 0.0 **** 0.06
30603 H 153.16889684109537 8.728615568912268 84.42643337508565 H 0.0 **** 0.06
30604 H 151.9034903836429 7.541300758418245 84.82564834148566 H 0.0 **** 0.06
30605 H 152.7588402862463 8.402690710534536 86.12728053854329 H 0.0 **** 0.06
30606 C 55.32823222195047 39.90601386916093 120.29169418767935 C 0.0 **** -0.24
30607 H 54.77846795607131 40.27589853079881 119.42618810707353 H 0.0 **** 0.06
30608 H 54.68219327206745 39.92890817890088 121.16884508004449 H 0.0 **** 0.06
30609 H 56.200532301781635 40.53578410209563 120.46400839060732 H 0.0 **** 0.06
30610 H 55.651488118120625 38.881225959207995 120.1053005525273 H 0.0 **** 0.06
30611 C 84.75034554061145 13.072117823347128 40.04717160513695 C 0.0 **** -0.24
30612 H 85.09562945110486 13.138240442938312 39.016021775705894 H 0.0 **** 0.06
30613 H 84.08615817605695 12.214355765249415 40.1535745412649 H 0.0 **** 0.06
30614 H 84.21192113734992 13.983092150144401 40.308973302703635 H 0.0 **** 0.06
30615 H 85.60708385093902 12.953541013321633 40.710395690845274 H 0.0 **** 0.06
30616 C 54.29354669125354 71.0335596385265 8.09142439492419 C 0.0 **** -0.24
30617 H 53.22410085211855 70.85090842019508 8.197104660704355 H 0.0 **** 0.06
30618 H 54.82360352908212 70.58392269479155 8.930202382741498 H 0.0 **** 0.06
30619 H 54.47871591983514 72.10772989040035 8.076264613770178 H 0.0 **** 0.06
30620 H 54.64562685823897 70.59201542599642 7.159074968978956 H 0.0 **** 0.06
30621 C 51.06840132379489 56.06867773861363 52.78638150247019 C 0.0 **** -0.24
30622 H 50.40008867400661 56.67873218606114 52.18032960488338 H 0.0 **** 0.06
30623 H 52.04116414029164 56.5555571204585 52.858583769724206 H 0.0 **** 0.06
30624 H 51.185763471487746 55.08871724853347 52.322586526316044 H 0.0 **** 0.06
30625 H 50.6468328547146 55.94873696967268 53.78439373873141 H 0.0 **** 0.06
30626 C 69.85699980834151 89.82015989236882 36.38086147917514 C 0.0 **** -0.24
30627 H 69.30588641138947 89.23484072619468 35.64478900779929 H 0.0 **** 0.06
30628 H 70.78941609779113 90.17417334185123 35.93972027718574 H 0.0 **** 0.06
30629 H 70.0781590620277 89.19735090421872 37.24798704721768 H 0.0 **** 0.06
30630 H 69.2540794012863 90.67387414146168 36.69015607325116 H 0.0 **** 0.06
30631 C 105.72715048155672 45.283333749162864 97.931067859282 C 0.0 **** -0.24
30632 H 105.27535228064428 46.12057081014598 98.46453455766874 H 0.0 **** 0.06
30633 H 104.95857892897902 44.75930359018247 97.36219672359533 H 0.0 **** 0.06
30634 H 106.18012803635136 44.59813470563705 98.64682463337869 H 0.0 **** 0.06
30635 H 106.49240319158369 45.657166199354265 97.2505255864528 H 0.0 **** 0.06
30636 C 171.53180873352852 132.8532291624061 57.80585988564553 C 0.0 **** -0.24
30637 H 170.74075796756634 132.50071294037102 57.14399193524201 H 0.0 **** 0.06
30638 H 171.46935558345558 133.93785688715164 57.899195375478314 H 0.0 **** 0.06
30639 H 172.50143457704053 132.57949082909906 57.38903347764932 H 0.0 **** 0.06
30640 H 171.41591958325674 132.39500242274198 58.78748716418235 H 0.0 **** 0.06
30641 C 167.22935854571557 112.03168003539986 43.07999099343637 C 0.0 **** -0.24
30642 H 167.50168578893056 111.09681495897814 43.57148706790623 H 0.0 **** 0.06
30643 H 166.30410398600623 111.89106959601185 42.52175907748379 H 0.0 **** 0.06
30644 H 168.02472379429105 112.3280397035391 42.39737235465431 H 0.0 **** 0.06
30645 H 167.08681056931817 112.80796608565646 43.831340585735205 H 0.0 **** 0.06
30646 C 94.53894921074252 32.27567974734349 94.11313673307478 C 0.0 **** -0.24
30647 H 95.54268110312634 32.07470036530955 94.48740636437984 H 0.0 **** 0.06
30648 H 93.86107740632559 31.49119200348791 94.45050744849999 H 0.0 **** 0.06
30649 H 94.55560995220347 32.298435973017845 93.02391281954087 H 0.0 **** 0.06
30650 H 94.19694575802325 33.2394915811698 94.49144163363562 H 0.0 **** 0.06
30651 C 161.92819010583725 25.937859984116756 10.219902011778508 C 0.0 **** -0.24
30652 H 162.9017346377624 26.047465424857705 10.697378574452088 H 0.0 **** 0.06
30653 H 161.73051258751246 24.882126434544034 10.033750295019729 H 0.0 **** 0.06
30654 H 161.92420314284513 26.480824436590524 9.275228592949887 H 0.0 **** 0.06
30655 H 161.15599049615153 26.343077290328495 10.875169080908293 H 0.0 **** 0.06
30656 C 53.99275957909421 72.39615957023128 153.66170898103985 C 0.0 **** -0.24
30657 H 55.04383358382948 72.65028559407943 153.7987111185945 H 0.0 **** 0.06
30658 H 53.86092493345569 71.90350770211023 152.69803477973124 H 0.0 **** 0.06
30659 H 53.393069286211215 73.30625615530664 153.68981520813642 H 0.0 **** 0.06
30660 H 53.67416072696618 71.72576306625723 154.45942726542313 H 0.0 **** 0.06
30661 C 156.18990696330945 46.59209048484405 141.39949704862377 C 0.0 **** -0.24
30662 H 155.95095215807243 45.916535968353756 140.578252337153 H 0.0 **** 0.06
30663 H 155.39777144853286 46.54637350299548 142.14828108203815 H 0.0 **** 0.06
30664 H 156.27441096191882 47.60978222592858 141.02069666612869 H 0.0 **** 0.06
30665 H 157.13535368118573 46.29326795377381 141.85274068877163 H 0.0 **** 0.06
30666 C 65.98281505153872 55.607117375671535 32.97392767569107 C 0.0 **** -0.24
30667 H 65.79331389765831 56.22417835212636 32.09566561530889 H 0.0 **** 0.06
30668 H 65.34241470262285 55.93479898955529 33.79320501263402 H 0.0 **** 0.06
30669 H 67.02777170894846 55.70381326546561 33.26750842523222 H 0.0 **** 0.06
30670 H 65.76577189439253 54.56502649656632 32.738542750882175 H 0.0 **** 0.06
30671 C 136.16771331712067 170.65112820519906 106.55126030775793 C 0.0 **** -0.24
30672 H 136.57261523861985 169.64838312580665 106.41636808485868 H 0.0 **** 0.06
30673 H 135.50399334277637 170.88931274818395 105.71932332714744 H 0.0 **** 0.06
30674 H 136.98532892340782 171.37213852072145 106.58198592572194 H 0.0 **** 0.06
30675 H 135.6096200515121 170.69437984520926 107.48617440434904 H 0.0 **** 0.06
30676 C 26.70980155593322 105.85694026963967 99.90396151717849 C 0.0 **** -0.24
30677 H 25.717436286667613 105.4869948015174 99.64394855560298 H 0.0 **** 0.06
30678 H 27.347888868577158 105.01790867877841 100.18183336298878 H 0.0 **** 0.06
30679 H 26.63084921355574 106.54654393006999 100.7434229271999 H 0.0 **** 0.06
30680 H 27.141324870285814 106.3738493896243 99.04675863646321 H 0.0 **** 0.06
30681 C 74.53042123030173 130.8304355981787 115.65274774223604 C 0.0 **** -0.24
30682 H 74.49175936544032 130.68353004099356 114.5731921790308 H 0.0 **** 0.06
30683 H 75.24430550714021 130.1307956488206 116.088937381585 H 0.0 **** 0.06
30684 H 73.54190098720971 130.6546661381056 116.078536476393 H 0.0 **** 0.06
30685 H 74.84334813888535 131.8520714574158 115.86914117287733 H 0.0 **** 0.06
30686 C 97.00405617393662 70.49688966420206 26.965685661669546 C 0.0 **** -0.24
30687 H 96.67927228625973 69.82948428190167 26.167483516039596 H 0.0 **** 0.06
30688 H 96.34382859433077 70.3823947630006 27.82651880459126 H 0.0 **** 0.06
30689 H 96.96687677457763 71.52808147376464 26.61411726749207 H 0.0 **** 0.06
30690 H 98.02456262490955 70.24778849920637 27.254267263227497 H 0.0 **** 0.06
30691 C 94.41849602757472 50.988729032607864 55.729876998091655 C 0.0 **** -0.24
30692 H 93.82260569911134 51.898185759017906 55.64844982515862 H 0.0 **** 0.06
30693 H 95.16683331524212 50.973753990239686 54.937290569963864 H 0.0 **** 0.06
30694 H 93.76827418069115 50.119576464856266 55.63218595854586 H 0.0 **** 0.06
30695 H 94.91421391898646 50.96542699570995 56.69995068108378 H 0.0 **** 0.06
30696 C 155.99253549755417 93.71256514623119 15.258351659858349 C 0.0 **** -0.24
30697 H 155.61704441555463 94.54590058862576 14.663546898262183 H 0.0 **** 0.06
30698 H 155.6821593948302 92.77218505786826 14.80334601435959 H 0.0 **** 0.06
30699 H 155.59116904875606 93.7780821850263 16.268962681899673 H 0.0 **** 0.06
30700 H 157.0813024837488 93.75687341811062 15.296593422531224 H 0.0 **** 0.06
30701 C 94.86630204777472 153.57890288350416 163.54332470812525 C 0.0 **** -0.24
30702 H 95.74266216248694 154.00958295186098 163.0578096782694 H 0.0 **** 0.06
30703 H 95.12599587513998 153.27670638305472 164.55722191120785 H 0.0 **** 0.06
30704 H 94.53031161198541 152.70934708866957 162.97824653821723 H 0.0 **** 0.06
30705 H 94.06890968028708 154.321303816865 163.57684264133528 H 0.0 **** 0.06
30706 C 33.096441136398596 113.82561164836912 32.59360416366508 C 0.0 **** -0.24
30707 H 32.26063666030383 114.20858159003683 32.00867334182831 H 0.0 **** 0.06
30708 H 33.97738489988309 114.44251937184012 32.41327069262289 H 0.0 **** 0.06
30709 H 33.306115007079384 112.79741026432617 32.297334033311984 H 0.0 **** 0.06
30710 H 32.84246250491192 113.85432019259807 33.65286798291535 H 0.0 **** 0.06
30711 C 14.71701869113042 104.73182034943284 70.95460183980427 C 0.0 **** -0.24
30712 H 15.631027339349316 105.11641253378917 70.50181907265076 H 0.0 **** 0.06
30713 H 14.744342844879156 103.64094982566334 70.95498891460463 H 0.0 **** 0.06
30714 H 13.855492466683813 105.07323639395406 70.38134813081388 H 0.0 **** 0.06
30715 H 14.638989722545489 105.09357142127678 71.97917384212079 H 0.0 **** 0.06
30716 C 25.489641232658954 42.074896190150895 55.073291124947104 C 0.0 **** -0.24
30717 H 26.40014131108768 41.63371632597186 54.66926997997419 H 0.0 **** 0.06
30718 H 24.88847795903132 41.29748532018425 55.545449212198264 H 0.0 **** 0.06
30719 H 24.920406389234984 42.53633303616364 54.266442371379355 H 0.0 **** 0.06
30720 H 25.75083074284538 42.832737498951005 55.81293010279248 H 0.0 **** 0.06
30721 C 32.88247722910518 27.06132876653794 42.76103304325699 C 0.0 **** -0.24
30722 H 33.581794328213164 26.656484466982192 43.49360857870988 H 0.0 **** 0.06
30723 H 32.46320121990476 27.994305342492794 43.13727832674539 H 0.0 **** 0.06
30724 H 32.07948793237199 26.343597962199908 42.59179983171005 H 0.0 **** 0.06
30725 H 33.40673217434346 27.248928251369307 41.823746863382055 H 0.0 **** 0.06
30726 C 31.676185537444326 164.97889881795822 84.66809103326639 C 0.0 **** -0.24
30727 H 31.476600071959794 165.8738925354836 85.25654582790573 H 0.0 **** 0.06
30728 H 30.74974340445496 164.4192313862432 84.531037807578 H 0.0 **** 0.06
30729 H 32.40319297924904 164.3559668461977 85.1886514122673 H 0.0 **** 0.06
30730 H 32.074807355325575 165.26520102876833 83.69506027168964 H 0.0 **** 0.06
30731 C 147.0302558980884 46.07135397874441 125.0264436597648 C 0.0 **** -0.24
30732 H 147.98067604238685 46.5567559752871 124.80022763133397 H 0.0 **** 0.06
30733 H 146.47640228002894 46.67517250382548 125.74545169151017 H 0.0 **** 0.06
30734 H 147.21863622499112 45.08352643500726 125.44783754028109 H 0.0 **** 0.06
30735 H 146.44781286208493 45.97101979331572 124.11064218390959 H 0.0 **** 0.06
30736 C 86.16751736335122 51.05457648912119 164.66274046172055 C 0.0 **** -0.24
30737 H 85.47317666025972 51.55908644877377 163.9915453732126 H 0.0 **** 0.06
30738 H 86.81800393805305 50.39576414098016 164.0862573916306 H 0.0 **** 0.06
30739 H 85.6074968458887 50.467511424204616 165.39021884461226 H 0.0 **** 0.06
30740 H 86.77227122692412 51.79781827407862 165.1837852209123 H 0.0 **** 0.06
30741 C 67.44031129219876 121.64676835751467 162.9563830231968 C 0.0 **** -0.24
30742 H 67.55664522049558 122.29053980125289 162.08395310710495 H 0.0 **** 0.06
30743 H 66.42445537407954 121.73872907071345 163.34204634178008 H 0.0 **** 0.06
30744 H 68.15024975133124 121.94814310112926 163.7268671851781 H 0.0 **** 0.06
30745 H 67.62998322255599 120.61174720160503 162.67186421316464 H 0.0 **** 0.06
30746 C 69.48256550657094 49.43092065333194 65.54262118752595 C 0.0 **** -0.24
30747 H 68.61057523000292 48.86416724698951 65.871871504902 H 0.0 **** 0.06
30748 H 70.1794890796576 49.538439471995105 66.37377666116544 H 0.0 **** 0.06
30749 H 69.16684631398036 50.4172169394904 65.20263264224018 H 0.0 **** 0.06
30750 H 69.97048005862877 48.90233990821524 64.72406089411481 H 0.0 **** 0.06
30751 C 91.15310905634489 75.45824673014741 94.26283237861125 C 0.0 **** -0.24
30752 H 91.14108216762206 75.95136480121408 95.23472903006527 H 0.0 **** 0.06
30753 H 91.65522824095521 76.09853758956575 93.53664289757339 H 0.0 **** 0.06
30754 H 90.12974795500996 75.27247750231629 93.93698420665109 H 0.0 **** 0.06
30755 H 91.68592738642846 74.511039911583 94.34219254006669 H 0.0 **** 0.06
30756 C 63.696538317496874 50.764852439907884 149.04093473719144 C 0.0 **** -0.24
30757 H 64.64440127285445 51.27625260746639 148.87012519189312 H 0.0 **** 0.06
30758 H 63.508378293013834 50.69609170255967 150.11153592409246 H 0.0 **** 0.06
30759 H 63.74429972451742 49.76253251070885 148.61476246565573 H 0.0 **** 0.06
30760 H 62.89188942222006 51.324316092944514 148.5648604431457 H 0.0 **** 0.06
30761 C 70.29002583185067 51.29201762578157 133.51843762948081 C 0.0 **** -0.24
30762 H 70.1575329510236 50.34328109441978 134.03649723805114 H 0.0 **** 0.06
30763 H 69.87434031780134 52.0980182963216 134.12443325742066 H 0.0 **** 0.06
30764 H 69.77410539419446 51.25660532859611 132.55868752206533 H 0.0 **** 0.06
30765 H 71.351979086948 51.47216500498551 133.35350015280648 H 0.0 **** 0.06
30766 C 110.85413304671414 62.86309614161159 97.70088765876324 C 0.0 **** -0.24
30767 H 111.61371322780676 63.337554338537785 97.07984777002645 H 0.0 **** 0.06
30768 H 110.58500197972478 63.531069932578745 98.51919913529159 H 0.0 **** 0.06
30769 H 111.24762287537823 61.93049239158445 98.1063666473463 H 0.0 **** 0.06
30770 H 109.97105757926423 62.65276231833978 97.09672326572121 H 0.0 **** 0.06
30771 C 154.6648044512208 163.2222457317411 57.13992660046108 C 0.0 **** -0.24
30772 H 153.76965409819437 162.6908525879178 57.46498258271174 H 0.0 **** 0.06
30773 H 154.4228479743104 164.27169049800153 56.97414991299638 H 0.0 **** 0.06
30774 H 155.0313582693978 162.78265630428 56.212083063217904 H 0.0 **** 0.06
30775 H 155.43337490128386 163.1427494355899 57.908505794116365 H 0.0 **** 0.06
30776 C 41.12622595894115 116.35491661045944 98.39758178328196 C 0.0 **** -0.24
30777 H 42.13929195164067 115.9845679349753 98.24475409560574 H 0.0 **** 0.06
30778 H 40.94770905978095 116.49260252743778 99.465463132689 H 0.0 **** 0.06
30779 H 40.41155744450714 115.63439890643258 98.000032625062 H 0.0 **** 0.06
30780 H 41.005334944417314 117.30764926699874 97.88286631929114 H 0.0 **** 0.06
30781 C 27.43855202659074 122.02187554725748 103.8368248593165 C 0.0 **** -0.24
30782 H 26.69432282518727 121.49786935863256 103.23627292687289 H 0.0 **** 0.06
30783 H 28.150573368712458 122.51979454753561 103.17882071345471 H 0.0 **** 0.06
30784 H 27.964788664910543 121.30621672673749 104.46742980735277 H 0.0 **** 0.06
30785 H 26.942802566018827 122.7629704657351 104.4635049758079 H 0.0 **** 0.06
30786 C 37.81459610121868 166.09018427058535 55.18538638867476 C 0.0 **** -0.24
30787 H 37.96945658424511 166.17396662671715 54.1101515745591 H 0.0 **** 0.06
30788 H 38.739212614791995 166.3404140061869 55.705636876175376 H 0.0 **** 0.06
30789 H 37.523533698395966 165.06987072822307 55.43249588290095 H 0.0 **** 0.06
30790 H 37.026360197848135 166.77788751412572 55.49320552334086 H 0.0 **** 0.06
30791 C 155.53385644612155 161.36443971954023 164.12145681068353 C 0.0 **** -0.24
30792 H 156.55019902027183 161.2791745303604 163.7367376818404 H 0.0 **** 0.06
30793 H 155.56024446646197 161.8094342326823 165.11685762483063 H 0.0 **** 0.06
30794 H 155.082494090865 160.37502022946705 164.1773425663643 H 0.0 **** 0.06
30795 H 154.9453036463971 161.99600158947734 163.45649262145685 H 0.0 **** 0.06
30796 C 81.32436227894415 128.93602142046876 99.71543163908268 C 0.0 **** -0.24
30797 H 80.83853919473785 129.15427428801928 98.7640937293848 H 0.0 **** 0.06
30798 H 80.65255263332801 128.34498311106648 100.33791272543351 H 0.0 **** 0.06
30799 H 81.5646629265782 129.8698610775644 100.22338958101494 H 0.0 **** 0.06
30800 H 82.24094582345619 128.37424034514646 99.53370153034359 H 0.0 **** 0.06
30801 C 1.341942330014355 143.85381688519857 170.48559500984686 C 0.0 **** -0.24
30802 H 1.0038167610640514 143.90083505433512 171.52082569926526 H 0.0 **** 0.06
30803 H 1.843638407506262 142.9019214410153 170.31010908999912 H 0.0 **** 0.06
30804 H 2.035906979969461 144.6724621919459 170.2925635688108 H 0.0 **** 0.06
30805 H 0.4836634997768883 143.9408372902478 169.81979018320942 H 0.0 **** 0.06
30806 C 16.55051295413412 13.934843477555319 91.11843817889208 C 0.0 **** -0.24
30807 H 17.140185812087054 14.401198370810533 91.9068855038098 H 0.0 **** 0.06
30808 H 17.21935075250326 13.484153952590958 90.38421125407419 H 0.0 **** 0.06
30809 H 15.933956616877765 14.690132781116063 90.63151362141998 H 0.0 **** 0.06
30810 H 15.911393875517007 13.164691605260685 91.54906452790333 H 0.0 **** 0.06
30811 C 14.478597691965156 118.65590876625271 94.36856810376872 C 0.0 **** -0.24
30812 H 15.067218229768116 117.88719153404196 94.86981842022914 H 0.0 **** 0.06
30813 H 13.500629746066423 118.73011718322783 94.84499334994706 H 0.0 **** 0.06
30814 H 14.352923442477547 118.39026164761373 93.3197126654357 H 0.0 **** 0.06
30815 H 14.99317161275902 119.61317205353993 94.44297794203146 H 0.0 **** 0.06
30816 C 104.8209326144146 20.046566623644026 71.51007200392083 C 0.0 **** -0.24
30817 H 105.85141008811041 20.315636775649466 71.27419774659758 H 0.0 **** 0.06
30818 H 104.47885085438875 19.27810648159442 70.81704945235461 H 0.0 **** 0.06
30819 H 104.18630467403523 20.928492142309892 71.41788757947677 H 0.0 **** 0.06
30820 H 104.76886631390425 19.66702972796577 72.53009798659036 H 0.0 **** 0.06
30821 C 20.99748415587959 154.55509408291954 35.949916407986265 C 0.0 **** -0.24
30822 H 21.405149323754074 154.7544037225539 34.95870655527109 H 0.0 **** 0.06
30823 H 21.814963007999836 154.39155653365643 36.65305723187949 H 0.0 **** 0.06
30824 H 20.367973131992812 153.66609460346953 35.91187721861384 H 0.0 **** 0.06
30825 H 20.40247998087554 155.40754433128416 36.27599885290752 H 0.0 **** 0.06
30826 C 101.485449812355 38.906140260307495 36.58921272801257 C 0.0 **** -0.24
30827 H 100.81129396323604 38.4222643308382 37.29583862374548 H 0.0 **** 0.06
30828 H 101.90926864623555 38.155939292169876 35.92041430283666 H 0.0 **** 0.06
30829 H 102.2885989821254 39.402051075866495 37.134713481035675 H 0.0 **** 0.06
30830 H 100.93231968788302 39.642967618003325 36.006211258300596 H 0.0 **** 0.06
30831 C 151.4574988026969 64.60773931422544 129.10373051088428 C 0.0 **** -0.24
30832 H 150.3830635637736 64.79169684811897 129.13339120601935 H 0.0 **** 0.06
30833 H 151.7176259615248 63.85064096036656 129.84331696414839 H 0.0 **** 0.06
30834 H 151.98969975553814 65.53243608672952 129.32730871856361 H 0.0 **** 0.06
30835 H 151.73895942022054 64.2584507314857 128.11024090564032 H 0.0 **** 0.06
30836 C 115.89302466766225 59.77184209399026 157.04324714992453 C 0.0 **** -0.24
30837 H 115.40499092586748 58.862801254565355 157.39623586495048 H 0.0 **** 0.06
30838 H 116.199643504757 60.37412568926692 157.89942095930581 H 0.0 **** 0.06
30839 H 115.19751665652217 60.341488361887784 156.427537072637 H 0.0 **** 0.06
30840 H 116.76923151323314 59.506689350327235 156.45268662371822 H 0.0 **** 0.06
30841 C 2.1412986616019936 162.05404965094453 141.1621085283223 C 0.0 **** -0.24
30842 H 2.533053257325129 161.0555270731582 140.96711059061766 H 0.0 **** 0.06
30843 H 1.3644988950824626 162.28750351405097 140.43368652622604 H 0.0 **** 0.06
30844 H 2.9478428857740155 162.78237400900701 141.07901085941722 H 0.0 **** 0.06
30845 H 1.7211130797443133 162.08982191622283 142.16680130865495 H 0.0 **** 0.06
30846 C 31.4695444492379 8.073685821278161 37.39356008347821 C 0.0 **** -0.24
30847 H 31.426776019377883 7.690135878168064 36.37393784921582 H 0.0 **** 0.06
30848 H 30.70044036204382 7.5887645845267 37.99598312718285 H 0.0 **** 0.06
30849 H 31.298845811483773 9.14957683465829 37.38357757610612 H 0.0 **** 0.06
30850 H 32.45066924307082 7.865023047703744 37.8192044761235 H 0.0 **** 0.06
30851 C 167.74696956625766 72.77233177000255 71.71242734287351 C 0.0 **** -0.24
30852 H 167.17233581880205 72.52170849321584 72.6040843472635 H 0.0 **** 0.06
30853 H 167.35898459091422 72.21324304136175 70.8612289965247 H 0.0 **** 0.06
30854 H 168.79369466590674 72.51378917636029 71.87029266018865 H 0.0 **** 0.06
30855 H 167.66298125718046 73.84170649002004 71.51495861305328 H 0.0 **** 0.06
30856 C 140.42246671929828 4.334253600393225 51.50558787794843 C 0.0 **** -0.24
30857 H 139.5584312092617 4.982960947254789 51.65112005057942 H 0.0 **** 0.06
30858 H 140.37059156174558 3.497430935259466 52.20155049081657 H 0.0 **** 0.06
30859 H 141.33632527799995 4.901241774904754 51.685313091378674 H 0.0 **** 0.06
30860 H 140.4252691711917 3.9573192069425005 50.48244965826879 H 0.0 **** 0.06
30861 C 57.30159922960631 163.44036264415413 1.894788890771224 C 0.0 **** -0.24
30862 H 56.29866677481073 163.25616823852775 2.281024727482844 H 0.0 **** 0.06
30863 H 57.71912736320752 164.32570900890832 2.3754959627603682 H 0.0 **** 0.06
30864 H 57.25210618053595 163.59940555559353 0.8180907226264651 H 0.0 **** 0.06
30865 H 57.935575658610475 162.5786378477423 2.1062208617873353 H 0.0 **** 0.06
30866 C 118.1005250016841 12.76640681570364 152.86230764417354 C 0.0 **** -0.24
30867 H 118.99648690777798 12.186548482530036 152.63869685294978 H 0.0 **** 0.06
30868 H 118.10603406976011 13.68442805080835 152.27404761002754 H 0.0 **** 0.06
30869 H 118.08487102862563 13.014324323300528 153.92394085122152 H 0.0 **** 0.06
30870 H 117.21661973048566 12.179490089985563 152.61334900600525 H 0.0 **** 0.06
30871 C 10.388154368497112 53.21452619801718 156.86997090214453 C 0.0 **** -0.24
30872 H 9.800683754684883 53.453519412255716 155.98318190732965 H 0.0 **** 0.06
30873 H 10.04985625521249 53.82807659096699 157.70546686883736 H 0.0 **** 0.06
30874 H 11.440869492557908 53.41681587966687 156.6740604104032 H 0.0 **** 0.06
30875 H 10.260015136112202 52.16128258622612 157.11739843600617 H 0.0 **** 0.06
30876 C 106.39449878674503 135.0449221339663 47.46752976502353 C 0.0 **** -0.24
30877 H 106.39700693872669 134.08317204352804 47.980720435443914 H 0.0 **** 0.06
30878 H 105.45948315563044 135.16096791765187 46.92040793064888 H 0.0 **** 0.06
30879 H 107.23211555819077 135.0859660628504 46.77118450054081 H 0.0 **** 0.06
30880 H 106.49042665283503 135.84699623364992 48.19960501942461 H 0.0 **** 0.06
30881 C 113.1035141227153 144.54641799651537 50.33620445283994 C 0.0 **** -0.24
30882 H 112.85364552999613 144.89418192449264 51.33837814600794 H 0.0 **** 0.06
30883 H 114.0801663878492 144.06134438303962 50.35375909018683 H 0.0 **** 0.06
30884 H 113.13163314665564 145.39546140010842 49.65381909079359 H 0.0 **** 0.06
30885 H 112.34969517083113 143.83485554732374 49.99975379639578 H 0.0 **** 0.06
30886 C 2.546499736541392 45.64533483967935 91.76152209007557 C 0.0 **** -0.24
30887 H 2.77894097612176 46.70800580803126 91.81705244332284 H 0.0 **** 0.06
30888 H 1.8451002456540024 45.38402642096935 92.55366465249583 H 0.0 **** 0.06
30889 H 3.4621148279603347 45.0660501090624 91.88183999613292 H 0.0 **** 0.06
30890 H 2.0999035095885645 45.421229184088034 90.79215854387132 H 0.0 **** 0.06
30891 C 163.4694593403264 24.300421100005607 163.52230823800923 C 0.0 **** -0.24
30892 H 162.59077530679824 24.54961600910393 164.1170287145362 H 0.0 **** 0.06
30893 H 163.31167111096227 23.34390354689402 163.02405104564406 H 0.0 **** 0.06
30894 H 164.34126616523668 24.23273063924882 164.17316156280685 H 0.0 **** 0.06
30895 H 163.63387676054072 25.07705457514127 162.77443219106314 H 0.0 **** 0.06
30896 C 34.0161704681079 59.497571349766616 132.58140249162335 C 0.0 **** -0.24
30897 H 33.47334670353217 60.40905939004679 132.83205983441445 H 0.0 **** 0.06
30898 H 35.050035249454766 59.74602626411286 132.33883086919718 H 0.0 **** 0.06
30899 H 33.54591797005813 59.019654294658835 131.7219439035751 H 0.0 **** 0.06
30900 H 33.995458208008415 58.81686420615432 133.43227026194364 H 0.0 **** 0.06
30901 C 80.30996588782911 57.04558991164829 39.91455443500175 C 0.0 **** -0.24
30902 H 80.14517309406399 57.35466274132459 38.883294306613095 H 0.0 **** 0.06
30903 H 79.3556592746119 57.00900280291792 40.44018402198459 H 0.0 **** 0.06
30904 H 80.96885733247916 57.7619139294919 40.40710209743642 H 0.0 **** 0.06
30905 H 80.77131425275526 56.0584637339755 39.92900306339412 H 0.0 **** 0.06
30906 C 142.85438553167035 136.6383657553437 122.80566593475348 C 0.0 **** -0.24
30907 H 141.84359089478767 136.68039408050845 122.39895347014246 H 0.0 **** 0.06
30908 H 142.80502957451068 136.5017875666158 123.88588515740426 H 0.0 **** 0.06
30909 H 143.37516880266432 137.56962954550082 122.57943869074438 H 0.0 **** 0.06
30910 H 143.39218077035196 135.80387647379 122.3564943814948 H 0.0 **** 0.06
30911 C 22.413725054668305 96.54985109289123 110.12639852957864 C 0.0 **** -0.24
30912 H 21.702472555709477 97.10910954783185 110.73530745965496 H 0.0 **** 0.06
30913 H 22.911751016335117 97.22895052753185 109.43475825488167 H 0.0 **** 0.06
30914 H 21.884666477645297 95.78068346068088 109.56437064685713 H 0.0 **** 0.06
30915 H 23.156155404525492 96.08123601412848 110.7740985608232 H 0.0 **** 0.06
30916 C 125.67238779830916 164.2373959657096 108.43646267197389 C 0.0 **** -0.24
30917 H 126.10128971675513 165.17950028060406 108.77924659050916 H 0.0 **** 0.06
30918 H 126.3126404823027 163.80740050937402 107.66631555042969 H 0.0 **** 0.06
30919 H 124.67985922823115 164.4191368785648 108.02547917619887 H 0.0 **** 0.06
30920 H 125.59720055196473 163.54627289927302 109.27603218800175 H 0.0 **** 0.06
30921 C 156.250768644394 110.75409465128678 54.77385533000083 C 0.0 **** -0.24
30922 H 157.04318326209824 110.79751617426888 55.52122661489622 H 0.0 **** 0.06
30923 H 155.63143606725316 111.64842909558126 54.84918973796749 H 0.0 **** 0.06
30924 H 155.63589273443262 109.87121327538796 54.94718236845898 H 0.0 **** 0.06
30925 H 156.69245547161495 110.70036161831212 53.779120855273106 H 0.0 **** 0.06
30926 C 6.751974105520475 62.9070163464322 20.688308554906897 C 0.0 **** -0.24
30927 H 7.44676425668797 62.106021009200404 20.941226142170137 H 0.0 **** 0.06
30928 H 6.494876886663064 62.84379623460798 19.63029415930699 H 0.0 **** 0.06
30929 H 7.219259222047441 63.870522746671895 20.892098214005053 H 0.0 **** 0.06
30930 H 5.848198656902554 62.80708711919347 21.289233065602374 H 0.0 **** 0.06
30931 C 129.11863103473098 76.64056265721638 114.46011574398057 C 0.0 **** -0.24
30932 H 128.0790927408749 76.49385662009101 114.16804273665667 H 0.0 **** 0.06
30933 H 129.68916138726942 75.73800057718609 114.23754881691349 H 0.0 **** 0.06
30934 H 129.16947229620735 76.84795031692869 115.52893270954866 H 0.0 **** 0.06
30935 H 129.53703371063858 77.48055477140139 113.90655399917836 H 0.0 **** 0.06
30936 C 53.628782239087954 156.19086735964862 84.83430510630146 C 0.0 **** -0.24
30937 H 54.284762820972446 157.05846918039617 84.90208215881695 H 0.0 **** 0.06
30938 H 54.21655244992891 155.2806502144844 84.9565758539382 H 0.0 **** 0.06
30939 H 53.14124994471011 156.18010963572254 83.85896170721324 H 0.0 **** 0.06
30940 H 52.87375446199523 156.24499279870258 85.61759664468423 H 0.0 **** 0.06
30941 C 51.06248367169812 165.09284151186012 67.78674427007148 C 0.0 **** -0.24
30942 H 50.103444059990096 164.9355648413001 68.27967249959117 H 0.0 **** 0.06
30943 H 51.82610085005062 165.30501782503146 68.53546265439148 H 0.0 **** 0.06
30944 H 50.98337075987338 165.9355840593634 67.09915183040852 H 0.0 **** 0.06
30945 H 51.33702453061579 164.19563208971283 67.23134371654672 H 0.0 **** 0.06
30946 C 10.634786701466851 103.08441167137937 29.535722609634377 C 0.0 **** -0.24
30947 H 9.604272512008492 103.43578735133946 29.472320248855056 H 0.0 **** 0.06
30948 H 10.745791157172391 102.44017561895572 30.40828499825693 H 0.0 **** 0.06
30949 H 11.305288638825346 103.93884675147126 29.626508206227413 H 0.0 **** 0.06
30950 H 10.882020652727135 102.52163259279865 28.63514208071058 H 0.0 **** 0.06
30951 C 44.99616481741458 117.96598251508718 134.02711497879088 C 0.0 **** -0.24
30952 H 44.523046699346935 118.19002746895075 134.98236271956057 H 0.0 **** 0.06
30953 H 44.786309004708755 116.93304652374735 133.75056309718218 H 0.0 **** 0.06
30954 H 46.07387449427222 118.10692201851742 134.113492712104 H 0.0 **** 0.06
30955 H 44.60250293538871 118.63485369611013 133.26200790070868 H 0.0 **** 0.06
30956 C 58.52832416102672 62.04373908957629 2.446167825363318 C 0.0 **** -0.24
30957 H 58.16430245141146 61.49674855130891 1.5763685752910988 H 0.0 **** 0.06
30958 H 57.76655620305422 62.75175050662436 2.7741855478504363 H 0.0 **** 0.06
30959 H 59.43705255782578 62.58365524379933 2.1800824402732246 H 0.0 **** 0.06
30960 H 58.74474126042276 61.341909500979625 3.2518464612454636 H 0.0 **** 0.06
30961 C 36.66586528385872 88.92587959142253 150.3284723848205 C 0.0 **** -0.24
30962 H 36.61041031762784 88.06506065073228 150.99453144555136 H 0.0 **** 0.06
30963 H 36.29868274984355 88.646297392892 149.34110975659272 H 0.0 **** 0.06
30964 H 37.7018171229704 89.2580270912112 150.25040797159124 H 0.0 **** 0.06
30965 H 36.05450515632725 89.73460046904955 150.72882163319156 H 0.0 **** 0.06
30966 C 89.89629922442083 46.41733949140894 23.301982975299836 C 0.0 **** -0.24
30967 H 89.53201524226091 45.400663699745905 23.150382401818263 H 0.0 **** 0.06
30968 H 89.09862497976331 47.12575240211493 23.07782646724587 H 0.0 **** 0.06
30969 H 90.74242061833718 46.60176001141201 22.640479515531865 H 0.0 **** 0.06
30970 H 90.21138391908698 46.539528179290926 24.338406996924334 H 0.0 **** 0.06
30971 C 120.2273090551239 7.002076486823 55.2764852844162 C 0.0 **** -0.24
30972 H 119.86182987783565 7.687131427060649 54.510488595518126 H 0.0 **** 0.06
30973 H 119.665677594159 7.154414665388572 56.19796797934805 H 0.0 **** 0.06
30974 H 121.28547704558073 7.194064548565962 55.45840646800917 H 0.0 **** 0.06
30975 H 120.09764410494111 5.9750119737381056 54.93669175206486 H 0.0 **** 0.06
30976 C 146.95136272645578 50.4917900421833 47.440874751770664 C 0.0 **** -0.24
30977 H 146.1424913775018 50.77168124772277 46.76645780306484 H 0.0 **** 0.06
30978 H 147.9017759155222 50.54211088895923 46.90990417111382 H 0.0 **** 0.06
30979 H 146.78833793763454 49.475615740145585 47.79979937987555 H 0.0 **** 0.06
30980 H 146.97058078551493 51.17805005349315 48.2882218365515 H 0.0 **** 0.06
30981 C 156.7772229579328 82.75812516389396 42.003371298345485 C 0.0 **** -0.24
30982 H 157.53973480485632 83.29312465580352 41.43780309237917 H 0.0 **** 0.06
30983 H 155.81076009963706 82.87994767429933 41.51442344778741 H 0.0 **** 0.06
30984 H 156.72596325543583 83.15925715597979 43.01521453330736 H 0.0 **** 0.06
30985 H 157.03350821673257 81.69869418033994 42.04522927761582 H 0.0 **** 0.06
30986 C 145.0841950106868 149.2589784487791 131.8889748699778 C 0.0 **** -0.24
30987 H 145.5121403515046 148.98796406508347 130.92379241271044 H 0.0 **** 0.06
30988 H 145.47558730962072 148.59304631808007 132.65857000625144 H 0.0 **** 0.06
30989 H 143.99963391646628 149.16610268392986 131.84352733505338 H 0.0 **** 0.06
30990 H 145.35125044800787 150.28870298161493 132.12838662637364 H 0.0 **** 0.06
30991 C 115.84417418976199 52.06270379463996 120.56321235690598 C 0.0 **** -0.24
30992 H 116.24513981012916 52.666004213635006 121.37789166213634 H 0.0 **** 0.06
30993 H 116.65181877526544 51.78313782059047 119.8862778763164 H 0.0 **** 0.06
30994 H 115.09582276370253 52.63898412839234 120.0190411437595 H 0.0 **** 0.06
30995 H 115.38384430344098 51.162524406903344 120.97104156528331 H 0.0 **** 0.06
30996 C 132.7741456198272 153.19405339668162 106.26760009252337 C 0.0 **** -0.24
30997 H 131.80083514195596 152.7097255615848 106.33853960437406 H 0.0 **** 0.06
30998 H 132.98995309222963 153.7148008996672 107.20031191662918 H 0.0 **** 0.06
30999 H 132.76471273001945 153.90940923428 105.44531593991039 H 0.0 **** 0.06
31000 H 133.54136228566665 152.44153974989842 106.0850597207118 H 0.0 **** 0.06
31001 C 68.22733405216464 45.59681991460886 52.24095928934162 C 0.0 **** -0.24
31002 H 68.09329411595989 45.99742497179851 51.23643748655627 H 0.0 **** 0.06
31003 H 69.27716953176174 45.34076805235111 52.39317352122109 H 0.0 **** 0.06
31004 H 67.61464077966801 44.703182772579 52.360222863336276 H 0.0 **** 0.06
31005 H 67.92608788624433 46.344735234629496 52.97443840087408 H 0.0 **** 0.06
31006 C 11.02002651590385 144.7393636639196 90.19039730165056 C 0.0 **** -0.24
31007 H 11.15900897107548 145.78836141211556 89.92995964932868 H 0.0 **** 0.06
31008 H 11.095612549520013 144.12836435244128 89.29022520001166 H 0.0 **** 0.06
31009 H 10.036779023762278 144.603838971221 90.63997442341474 H 0.0 **** 0.06
31010 H 11.789507012212624 144.43712693267955 90.90088087836938 H 0.0 **** 0.06
31011 C 22.786814881206908 18.19956518652956 41.93996061144368 C 0.0 **** -0.24
31012 H 22.677443146232008 17.345893893397268 42.607870258081675 H 0.0 **** 0.06
31013 H 21.960540938290336 18.210840532296608 41.227547468178074 H 0.0 **** 0.06
31014 H 23.730347098658342 18.12133448483477 41.400756504117695 H 0.0 **** 0.06
31015 H 22.775980928962355 19.12052158351881 42.523216246198274 H 0.0 **** 0.06
31016 C 132.18792986090492 155.08982297483192 86.86443891767885 C 0.0 **** -0.24
31017 H 131.93225795587273 154.20106971099034 87.44128265312332 H 0.0 **** 0.06
31018 H 132.12192746011155 155.97049559161675 87.50527562094595 H 0.0 **** 0.06
31019 H 131.49364163921166 155.19415349569437 86.03042800430774 H 0.0 **** 0.06
31020 H 133.2037506066022 154.99430903566235 86.48196870630485 H 0.0 **** 0.06
31021 C 97.1788456126599 96.00662065294401 20.318134480160026 C 0.0 **** -0.24
31022 H 97.96664949399536 95.45168254437851 20.828346149675667 H 0.0 **** 0.06
31023 H 96.33874432018868 95.34136753767609 20.115545409492093 H 0.0 **** 0.06
31024 H 97.56468253801191 96.40173068563595 19.37797910168544 H 0.0 **** 0.06
31025 H 96.84677744924133 96.82919607930918 20.949921256366785 H 0.0 **** 0.06
31026 C 122.85223657521885 29.783434870261573 165.9246797487035 C 0.0 **** -0.24
31027 H 123.12173807782372 30.010810499612433 164.89281809359093 H 0.0 **** 0.06
31028 H 121.82946701019239 30.109664505366425 166.11250897320397 H 0.0 **** 0.06
31029 H 123.53094439454264 30.30447638570365 166.60006676741585 H 0.0 **** 0.06
31030 H 122.92873170830151 28.709301921245242 166.09016405800784 H 0.0 **** 0.06
31031 C 171.73893391875288 7.699017318428176 127.5144545865142 C 0.0 **** -0.24
31032 H 172.46186762246882 6.9751598965003865 127.89085660930527 H 0.0 **** 0.06
31033 H 172.26128810933017 8.603737888288563 127.20151847708308 H 0.0 **** 0.06
31034 H 171.02672165200286 7.944095792400738 128.30244469907558 H 0.0 **** 0.06
31035 H 171.20756042447476 7.2733822558261 126.66309262194221 H 0.0 **** 0.06
31036 C 163.42500844894371 125.23060140705309 134.46623886481586 C 0.0 **** -0.24
31037 H 163.41415648437237 124.17920500233186 134.1793399046596 H 0.0 **** 0.06
31038 H 164.3768385989125 125.46741987939475 134.94333278210158 H 0.0 **** 0.06
31039 H 162.61084056424363 125.42492885019274 135.16418562201127 H 0.0 **** 0.06
31040 H 163.29912668626636 125.85049944190618 133.5782138594541 H 0.0 **** 0.06
31041 C 118.9070805538231 159.7666871116084 16.303822139631187 C 0.0 **** -0.24
31042 H 118.53882257089981 160.77906482885527 16.47447864777559 H 0.0 **** 0.06
31043 H 118.24544020780786 159.2530679180298 15.60716689636073 H 0.0 **** 0.06
31044 H 118.932008238106 159.22571209875943 17.24883630960975 H 0.0 **** 0.06
31045 H 119.91288627754227 159.81311481735625 15.884052497454583 H 0.0 **** 0.06
31046 C 68.96077475232514 106.15493545557362 42.98396116324599 C 0.0 **** -0.24
31047 H 68.724610094865 107.21813986532996 42.936265959840995 H 0.0 **** 0.06
31048 H 68.49512211216319 105.64196853367719 42.14238897750948 H 0.0 **** 0.06
31049 H 68.58221568508458 105.74009749724001 43.91811783339372 H 0.0 **** 0.06
31050 H 70.04158505393787 106.02164343258355 42.9379012914963 H 0.0 **** 0.06
31051 C 76.5249635992771 163.6734467076294 105.37372009039916 C 0.0 **** -0.24
31052 H 76.98674741489356 164.52448663917536 105.87297242163314 H 0.0 **** 0.06
31053 H 75.66163713939427 163.33899819899727 105.94980587445664 H 0.0 **** 0.06
31054 H 77.24769406224745 162.8606983863148 105.29714955076076 H 0.0 **** 0.06
31055 H 76.20363259193061 163.96898556806275 104.37417949856575 H 0.0 **** 0.06
31056 C 109.35380446979008 148.46133532551343 28.55976084233137 C 0.0 **** -0.24
31057 H 109.9466998719721 148.25363304861082 27.669541226266062 H 0.0 **** 0.06
31058 H 109.21655997925475 147.54094118980336 29.127586324093926 H 0.0 **** 0.06
31059 H 108.3817763946015 148.8564400781079 28.265181769845867 H 0.0 **** 0.06
31060 H 109.87190702428438 149.19580602363422 29.17764818255779 H 0.0 **** 0.06
31061 C 72.34521712878733 24.212437711817245 100.26051766383267 C 0.0 **** -0.24
31062 H 72.93741221142221 24.050284505922605 101.1622341171641 H 0.0 **** 0.06
31063 H 72.17392618456508 23.25845161231811 99.76253262357264 H 0.0 **** 0.06
31064 H 72.88120165977037 24.882544769146648 99.5891420086343 H 0.0 **** 0.06
31065 H 71.38774645199 24.658144229074225 100.53184369327982 H 0.0 **** 0.06
31066 C 45.17981290500116 40.58335282086966 47.841347287695186 C 0.0 **** -0.24
31067 H 44.766750953354006 41.42520404256712 48.39569509247316 H 0.0 **** 0.06
31068 H 44.76015390068558 40.568622715144045 46.83491469641291 H 0.0 **** 0.06
31069 H 44.93050292580253 39.65357987491083 48.35279326848109 H 0.0 **** 0.06
31070 H 46.26427913027955 40.68523408751389 47.78077126106557 H 0.0 **** 0.06
31071 C 171.24786911535324 60.40450364649837 109.03577811443742 C 0.0 **** -0.24
31072 H 170.88026045064288 60.251751739140715 110.05042628303141 H 0.0 **** 0.06
31073 H 172.27154434311717 60.03593470611594 108.96131213097507 H 0.0 **** 0.06
31074 H 171.22566194927526 61.467570589134056 108.79868600919565 H 0.0 **** 0.06
31075 H 170.6141670025122 59.86206337535576 108.33480782715492 H 0.0 **** 0.06
31076 C 24.136369993739436 33.104988891414166 90.93386285080517 C 0.0 **** -0.24
31077 H 23.398318208864026 32.591571839667836 90.31930152742108 H 0.0 **** 0.06
31078 H 24.665887480503727 32.37799472694908 91.55033501129365 H 0.0 **** 0.06
31079 H 23.6337465365022 33.82902413177442 91.57603171309312 H 0.0 **** 0.06
31080 H 24.848386303280876 33.62266158965426 90.29054569947003 H 0.0 **** 0.06
31081 C 91.16401587943452 134.83118094558327 45.660052324672975 C 0.0 **** -0.24
31082 H 91.31338460380167 135.05160875948934 44.60340918327094 H 0.0 **** 0.06
31083 H 92.04724873612787 134.32927653438148 46.05492048374816 H 0.0 **** 0.06
31084 H 90.29442504417212 134.18371242857614 45.77699466521666 H 0.0 **** 0.06
31085 H 90.99938363013754 135.76073478871425 46.20486886016454 H 0.0 **** 0.06
31086 C 34.39519465197604 76.60864253475471 117.5392296912701 C 0.0 **** -0.24
31087 H 34.54650476311885 75.92884431347946 118.37883606660108 H 0.0 **** 0.06
31088 H 33.66071349341243 77.36688911374233 117.81384175572077 H 0.0 **** 0.06
31089 H 34.03320234961784 76.04735695171173 116.67837997994008 H 0.0 **** 0.06
31090 H 35.33950520357948 77.09073484444137 117.2880330593969 H 0.0 **** 0.06
31091 C 91.4087174776531 27.76511086585228 48.779948138222 C 0.0 **** -0.24
31092 H 90.55576043416828 28.161393528908917 49.33202743802788 H 0.0 **** 0.06
31093 H 92.27416736324125 27.7076919281441 49.440147916978006 H 0.0 **** 0.06
31094 H 91.63432476737955 28.422110289422903 47.93992712926183 H 0.0 **** 0.06
31095 H 91.1682781398845 26.76967761728551 48.40710400645969 H 0.0 **** 0.06
31096 C 161.88974763801878 68.65202840940081 16.30862638677374 C 0.0 **** -0.24
31097 H 160.9859507685234 68.04426502456614 16.34828824835131 H 0.0 **** 0.06
31098 H 161.87428962436695 69.37961208845998 17.12060929792557 H 0.0 **** 0.06
31099 H 161.93397171195244 69.17453865756136 15.35224492534428 H 0.0 **** 0.06
31100 H 162.7643711787166 68.0100566424666 16.411193846995275 H 0.0 **** 0.06
31101 C 65.15652172031335 63.529014334449315 38.55747062490033 C 0.0 **** -0.24
31102 H 64.71130236179154 64.45621306626698 38.91675656792313 H 0.0 **** 0.06
31103 H 66.21185252710943 63.69389281430249 38.338276227352594 H 0.0 **** 0.06
31104 H 64.6441311232297 63.20621284932028 37.65142302676975 H 0.0 **** 0.06
31105 H 65.06005010706028 62.7591798991228 39.32378347572421 H 0.0 **** 0.06
31106 C 36.783517256417156 158.49519747318027 101.40162387236049 C 0.0 **** -0.24
31107 H 36.650152504727544 159.062245394294 102.32321255427004 H 0.0 **** 0.06
31108 H 37.28714982350192 157.5548470483791 101.62484011408037 H 0.0 **** 0.06
31109 H 37.38882281525565 159.07448784722092 100.70393408033425 H 0.0 **** 0.06
31110 H 35.80987592015629 158.29114692992079 100.9570610698994 H 0.0 **** 0.06
31111 C 115.71876428275158 95.66046432549689 151.28973613418228 C 0.0 **** -0.24
31112 H 114.76783919026647 95.17929111085917 151.51842585964673 H 0.0 **** 0.06
31113 H 116.17037100766547 96.02749168961634 152.21187142243554 H 0.0 **** 0.06
31114 H 115.54781040323417 96.49593196329434 150.61083939452354 H 0.0 **** 0.06
31115 H 116.38630742817216 94.94008764213854 150.8186196692454 H 0.0 **** 0.06
31116 C 146.24122490530254 90.71451127574407 43.63696344859267 C 0.0 **** -0.24
31117 H 145.64426204468236 89.95243046380152 44.13880345148604 H 0.0 **** 0.06
31118 H 146.69013564443236 90.29001780507396 42.73838754414885 H 0.0 **** 0.06
31119 H 147.02754550411788 91.05904167496848 44.30860614004621 H 0.0 **** 0.06
31120 H 145.6031425640261 91.55393097636367 43.363095524236144 H 0.0 **** 0.06
31121 C 128.2966296742773 45.324574610897 85.85292990883367 C 0.0 **** -0.24
31122 H 128.1162912819815 46.334946390631785 86.22003768194547 H 0.0 **** 0.06
31123 H 128.28897014144226 45.327869026449434 84.76247372307625 H 0.0 **** 0.06
31124 H 127.51433423830079 44.65951751911507 86.22062018488779 H 0.0 **** 0.06
31125 H 129.2660488013992 44.97680272692139 86.20931936906159 H 0.0 **** 0.06
31126 C 43.81689381904968 66.8544270979848 140.48645015256486 C 0.0 **** -0.24
31127 H 44.83823564846206 66.77077087910561 140.11567033118394 H 0.0 **** 0.06
31128 H 43.221879970191154 67.43803318563499 139.78306570929976 H 0.0 **** 0.06
31129 H 43.82206456394307 67.35087541992536 141.4569672931258 H 0.0 **** 0.06
31130 H 43.38497907066525 65.85940532772736 140.58913162896812 H 0.0 **** 0.06
31131 C 120.53563823053054 111.34727718399336 33.772581844652564 C 0.0 **** -0.24
31132 H 119.97447152296104 112.2798316710134 33.706458751743526 H 0.0 **** 0.06
31133 H 121.2330393275962 111.40194776632015 34.60862970733888 H 0.0 **** 0.06
31134 H 121.08883073937463 111.19017771519265 32.846460903062734 H 0.0 **** 0.06
31135 H 119.84413814780919 110.51900514681009 33.92826184513956 H 0.0 **** 0.06
31136 C 91.23671057076368 121.98510980521857 52.48299439655581 C 0.0 **** -0.24
31137 H 91.44925393349405 120.93965976757468 52.258800883786634 H 0.0 **** 0.06
31138 H 90.18407086771114 122.09242310434917 52.74817498833424 H 0.0 **** 0.06
31139 H 91.45459524974632 122.59596171589524 51.60641615129511 H 0.0 **** 0.06
31140 H 91.85703244425275 122.31236659155113 53.317027332033405 H 0.0 **** 0.06
31141 C 129.21681174270077 25.190051999183765 35.837399020335184 C 0.0 **** -0.24
31142 H 128.90516278733966 25.60503332428607 36.79658599323379 H 0.0 **** 0.06
31143 H 128.51520566704406 25.500006729700203 35.06283128955968 H 0.0 **** 0.06
31144 H 129.22972386892903 24.101386231317576 35.900757866699266 H 0.0 **** 0.06
31145 H 130.21419993565777 25.55203969295667 35.59091607086049 H 0.0 **** 0.06
31146 C 87.04835019011388 17.338659173293678 15.1490403256593 C 0.0 **** -0.24
31147 H 87.08058307742891 16.8134283202524 14.194023676040608 H 0.0 **** 0.06
31148 H 87.75227789108537 18.170731863127116 15.129392943058697 H 0.0 **** 0.06
31149 H 87.31923767453564 16.651493609196308 15.95029660735441 H 0.0 **** 0.06
31150 H 86.04103175246668 17.718083458679757 15.320682284926775 H 0.0 **** 0.06
31151 C 106.13686747583881 36.22216578040428 159.31122134117135 C 0.0 **** -0.24
31152 H 106.58974315674627 36.715435559037616 160.17133803744724 H 0.0 **** 0.06
31153 H 106.81610240761268 36.28122266271566 158.46022286673798 H 0.0 **** 0.06
31154 H 105.19811325684512 36.71731501640829 159.06220137221027 H 0.0 **** 0.06
31155 H 105.94467444605152 35.1774448630087 159.55215116971465 H 0.0 **** 0.06
31156 C 91.47097802183812 163.07432297728968 105.38125256577999 C 0.0 **** -0.24
31157 H 91.05293571402538 164.0387745057281 105.09441282294313 H 0.0 **** 0.06
31158 H 91.80476153156894 163.11744796184757 106.41880884695684 H 0.0 **** 0.06
31159 H 92.31744194416032 162.8379795948843 104.73617673347479 H 0.0 **** 0.06
31160 H 90.7083161484477 162.30286144194656 105.27754559271833 H 0.0 **** 0.06
31161 C 119.97755890117503 11.770332141497533 124.11382327203248 C 0.0 **** -0.24
31162 H 119.76812975482045 11.02160758368614 124.87712539152585 H 0.0 **** 0.06
31163 H 121.05598557493727 11.894419515279807 124.01279143468528 H 0.0 **** 0.06
31164 H 119.52709176670209 12.71969762152699 124.40291620239128 H 0.0 **** 0.06
31165 H 119.55884444297524 11.444618370753503 123.16146255495525 H 0.0 **** 0.06
31166 C 12.424596397733616 51.125276340704986 90.34960229734574 C 0.0 **** -0.24
31167 H 11.725683946824887 51.7417168999139 90.91423809614412 H 0.0 **** 0.06
31168 H 12.746526777999051 51.665360794794395 89.45858219111602 H 0.0 **** 0.06
31169 H 11.9332694369362 50.19728596484909 90.05538317199759 H 0.0 **** 0.06
31170 H 13.291542085517932 50.89704330070796 90.96998125536211 H 0.0 **** 0.06
31171 C 36.31340745290211 112.03187934221052 92.59782701542409 C 0.0 **** -0.24
31172 H 36.821936921577276 111.7207528087832 91.68542346515085 H 0.0 **** 0.06
31173 H 35.44168105036138 111.39836641302958 92.76160012587343 H 0.0 **** 0.06
31174 H 35.995992501998444 113.06971596507375 92.50037416885857 H 0.0 **** 0.06
31175 H 36.99619615899326 111.93868457058801 93.4427870873115 H 0.0 **** 0.06
31176 C 101.38339212923404 94.76663871024283 137.85349724637098 C 0.0 **** -0.24
31177 H 100.74102809042338 95.4561954626123 137.3055391096271 H 0.0 **** 0.06
31178 H 100.81618141339061 94.30855750939867 138.6636409352344 H 0.0 **** 0.06
31179 H 102.23362017944811 95.30997911163209 138.26460748508077 H 0.0 **** 0.06
31180 H 101.74153145302739 93.98963300715226 137.1769230868947 H 0.0 **** 0.06
31181 C 166.09404086522176 73.02066256122458 80.84058911085532 C 0.0 **** -0.24
31182 H 165.8427062858235 73.30548659367304 79.81906261751672 H 0.0 **** 0.06
31183 H 165.21020419420313 72.61330762168568 81.33153603069513 H 0.0 **** 0.06
31184 H 166.44275669964537 73.89690211929351 81.38686255944631 H 0.0 **** 0.06
31185 H 166.8811575741421 72.26610183678604 80.82293646008881 H 0.0 **** 0.06
31186 C 1.4412655915764958 89.03764867709077 27.15715545915816 C 0.0 **** -0.24
31187 H 0.9203206861373019 88.0860002480793 27.045008681365687 H 0.0 **** 0.06
31188 H 2.4940281801430046 88.85213751845077 27.371313673316763 H 0.0 **** 0.06
31189 H 0.9961570720797113 89.60097982169037 27.97666969545645 H 0.0 **** 0.06
31190 H 1.3534657464385305 89.60990158267145 26.23257553394302 H 0.0 **** 0.06
31191 C 149.2865065820062 43.71237178426202 86.75023138858809 C 0.0 **** -0.24
31192 H 150.36891526093288 43.61825244320812 86.6581053323821 H 0.0 **** 0.06
31193 H 148.8231206315613 42.73763441034605 86.59877285033467 H 0.0 **** 0.06
31194 H 148.91861947914666 44.411293604361035 85.99865000853133 H 0.0 **** 0.06
31195 H 149.03843187021465 44.08332144656865 87.74462188852462 H 0.0 **** 0.06
31196 C 2.0545495558141056 49.95200386168372 76.58069010646068 C 0.0 **** -0.24
31197 H 2.03013355835278 50.24101658977287 75.53021655915458 H 0.0 **** 0.06
31198 H 2.540031427070481 48.9803222792457 76.679120185076 H 0.0 **** 0.06
31199 H 1.0364423378379115 49.891276660099805 76.96422115217675 H 0.0 **** 0.06
31200 H 2.612890035534491 50.69640256597282 77.14975662953452 H 0.0 **** 0.06
31201 C 45.99039269729255 25.07847347487322 119.34402278418767 C 0.0 **** -0.24
31202 H 45.49774966157217 24.144508615163282 119.61573344846286 H 0.0 **** 0.06
31203 H 47.04631221170855 25.022350570040324 119.6098994535341 H 0.0 **** 0.06
31204 H 45.5225969914283 25.904399472318907 119.87961647553018 H 0.0 **** 0.06
31205 H 45.89378394004784 25.239704705181154 118.27046774771287 H 0.0 **** 0.06
31206 C 103.98820411397227 125.18456389951746 19.249378392605593 C 0.0 **** -0.24
31207 H 103.45856410930571 125.6790065341919 18.434907927504206 H 0.0 **** 0.06
31208 H 103.52723163274092 125.45476602033051 20.199571203554996 H 0.0 **** 0.06
31209 H 105.03181617813163 125.49864353108475 19.249235673878964 H 0.0 **** 0.06
31210 H 103.93457339602816 124.10348530413421 19.113554770732392 H 0.0 **** 0.06
31211 C 156.3262434862233 107.61538345573558 142.4719772027616 C 0.0 **** -0.24
31212 H 156.09533807185673 108.38998612447216 141.73987023388997 H 0.0 **** 0.06
31213 H 157.40222575318205 107.43985601827086 142.4879610845689 H 0.0 **** 0.06
31214 H 155.81154015077632 106.69422903008996 142.20087361886345 H 0.0 **** 0.06
31215 H 155.99625698005826 107.9396641131583 143.45926650442036 H 0.0 **** 0.06
31216 C 131.65990891387628 68.97787002564647 108.23465163400255 C 0.0 **** -0.24
31217 H 130.87155142105513 69.69328273187269 108.46832727116717 H 0.0 **** 0.06
31218 H 132.52578950784505 69.50876386022782 107.83626265310187 H 0.0 **** 0.06
31219 H 131.2968193379753 68.26632375813178 107.49288747951468 H 0.0 **** 0.06
31220 H 131.94688055975382 68.44451980670101 109.14011061344453 H 0.0 **** 0.06
31221 C 100.57225198964059 56.04142739748656 164.5099285462424 C 0.0 **** -0.24
31222 H 99.70549430745751 56.46849405171447 164.00607503374044 H 0.0 **** 0.06
31223 H 101.47670454786982 56.30231287417914 163.96103556689326 H 0.0 **** 0.06
31224 H 100.47187976282234 54.95650321599889 164.55012978558472 H 0.0 **** 0.06
31225 H 100.63394394900425 56.43850954390932 165.52348223245673 H 0.0 **** 0.06
31226 C 147.58865942326497 66.84019948100497 25.863674168756376 C 0.0 **** -0.24
31227 H 146.70423423627295 67.15402725841378 26.417872140767486 H 0.0 **** 0.06
31228 H 148.47297720320302 67.30966201302064 26.293801081580085 H 0.0 **** 0.06
31229 H 147.4884036796613 67.14050392815295 24.820080261154118 H 0.0 **** 0.06
31230 H 147.68722563723696 65.75661837111386 25.92161241281383 H 0.0 **** 0.06
31231 C 50.24170887073521 159.9335791249873 18.70510504491125 C 0.0 **** -0.24
31232 H 50.875749279240225 159.61265705820304 17.878816982179963 H 0.0 **** 0.06
31233 H 49.50064137730486 160.64402462830037 18.33914147462179 H 0.0 **** 0.06
31234 H 50.85565329772653 160.40944800814398 19.470478327428154 H 0.0 **** 0.06
31235 H 49.735907228911955 159.06687807239192 19.13218958691742 H 0.0 **** 0.06
31236 C 108.02447079564004 152.42112980212002 150.9895995535957 C 0.0 **** -0.24
31237 H 108.60003594786164 153.25723038462044 151.38687497231186 H 0.0 **** 0.06
31238 H 107.91036387900348 151.65868380551711 151.76090684071744 H 0.0 **** 0.06
31239 H 108.54710767736711 151.99603029552856 150.13240161870127 H 0.0 **** 0.06
31240 H 107.04112462402716 152.7733443919044 150.677294594794 H 0.0 **** 0.06
31241 C 81.1050078435762 109.57402451949434 50.94018671506839 C 0.0 **** -0.24
31242 H 80.1892547287193 109.75473108542377 50.37701661330124 H 0.0 **** 0.06
31243 H 81.24054467703992 110.36732966233018 51.675792534894526 H 0.0 **** 0.06
31244 H 81.95458929957938 109.56161950955396 50.25737440381937 H 0.0 **** 0.06
31245 H 81.0338362577207 108.61363856447485 51.45106010060164 H 0.0 **** 0.06
31246 C 139.9131674196306 147.4567833647912 67.12217809720664 C 0.0 **** -0.24
31247 H 139.94893637951367 146.40379317904214 67.39909576998815 H 0.0 **** 0.06
31248 H 139.3589372683868 148.01275619957642 67.87819021607334 H 0.0 **** 0.06
31249 H 139.4167006967068 147.56168865488902 66.15636501024 H 0.0 **** 0.06
31250 H 140.92804834504324 147.8493392958348 67.05265287868838 H 0.0 **** 0.06
31251 C 149.92727953039252 139.1813463351573 17.46356755094662 C 0.0 **** -0.24
31252 H 149.64419506072352 139.06002896024012 18.508861502714474 H 0.0 **** 0.06
31253 H 149.18342813546593 138.70042785245863 16.827214865326326 H 0.0 **** 0.06
31254 H 150.90086934699224 138.7208469732845 17.296010428675032 H 0.0 **** 0.06
31255 H 149.9814255985126 140.24291649350636 17.222131868678993 H 0.0 **** 0.06
31256 C 53.2937043967017 87.68418016151281 55.133857628884 C 0.0 **** -0.24
31257 H 53.815055111921964 87.31213237336756 56.016474245437635 H 0.0 **** 0.06
31258 H 52.383420693132905 88.19882914335324 55.44074063116412 H 0.0 **** 0.06
31259 H 53.038757580119594 86.84764161086778 54.48421809547436 H 0.0 **** 0.06
31260 H 53.9406904452553 88.37775042998558 54.59668398561374 H 0.0 **** 0.06
31261 C 132.5163298986194 120.05264977683191 152.3170966478544 C 0.0 **** -0.24
31262 H 131.92398610741068 120.22968183289481 153.21498231861466 H 0.0 **** 0.06
31263 H 133.52249403833946 119.74424369177905 152.6009744290854 H 0.0 **** 0.06
31264 H 132.56823125938055 120.9692729855804 151.72921967278995 H 0.0 **** 0.06
31265 H 132.04955718171038 119.26607657287599 151.72358756550693 H 0.0 **** 0.06
31266 C 4.031460074927963 136.81331399646655 161.98009032674307 C 0.0 **** -0.24
31267 H 4.3758015949385864 136.87567396102168 163.01243491069988 H 0.0 **** 0.06
31268 H 4.585836543596621 137.52449868563366 161.36870401630105 H 0.0 **** 0.06
31269 H 2.967835267355312 137.04764694529104 161.9369449682973 H 0.0 **** 0.06
31270 H 4.1960167772950925 135.80358832409524 161.60295724111512 H 0.0 **** 0.06
31271 C 83.10924106578605 63.019657763778895 27.44747563033843 C 0.0 **** -0.24
31272 H 82.52175698674995 62.608978002031066 28.268522991901136 H 0.0 **** 0.06
31273 H 83.20720676986804 62.27180279883255 26.660121912486545 H 0.0 **** 0.06
31274 H 84.09926221778278 63.295525062669455 27.81152858791785 H 0.0 **** 0.06
31275 H 82.60934409360644 63.90307561165632 27.049993411559882 H 0.0 **** 0.06
31276 C 16.018779575726683 148.9545925632788 124.39158414564164 C 0.0 **** -0.24
31277 H 15.06808533540044 148.54748982852234 124.04715561599176 H 0.0 **** 0.06
31278 H 16.100457339200062 149.99621748135542 124.0797693291355 H 0.0 **** 0.06
31279 H 16.83782437827378 148.3799956059863 123.95954349869348 H 0.0 **** 0.06
31280 H 16.066901006660572 148.89623015920122 125.4795015946039 H 0.0 **** 0.06
31281 C 31.984521085938184 170.2171151198848 66.35623582311102 C 0.0 **** -0.24
31282 H 31.38977032032568 169.5959594316732 65.6859751703442 H 0.0 **** 0.06
31283 H 32.99659850544026 169.81709575427155 66.41857354741732 H 0.0 **** 0.06
31284 H 31.5313309110779 170.21787585421077 67.34816742632033 H 0.0 **** 0.06
31285 H 32.018785075988376 171.2360165450587 65.97183626314356 H 0.0 **** 0.06
31286 C 19.044209784839325 60.42346715094395 157.54748693157762 C 0.0 **** -0.24
31287 H 19.65197867561401 59.56456371215707 157.26043975403013 H 0.0 **** 0.06
31288 H 17.98927362380102 60.18472083417143 157.40924040355554 H 0.0 **** 0.06
31289 H 19.308330669226187 61.279221204977546 156.92553487176303 H 0.0 **** 0.06
31290 H 19.228016339232944 60.663917942610425 158.59415436909657 H 0.0 **** 0.06
31291 C 80.5980757085661 157.83745911458107 70.47345447209506 C 0.0 **** -0.24
31292 H 80.24525636535908 158.23623937292615 71.42509412563922 H 0.0 **** 0.06
31293 H 80.7875222938624 158.6598027697365 69.78327616190757 H 0.0 **** 0.06
31294 H 79.8399743942768 157.1767353070372 70.05366927057275 H 0.0 **** 0.06
31295 H 81.52018608980723 157.27748199562467 70.63387983744872 H 0.0 **** 0.06
31296 C 138.80349812139139 142.286135760988 122.03616169070875 C 0.0 **** -0.24
31297 H 138.39274794283858 141.92448034313006 121.0936327372487 H 0.0 **** 0.06
31298 H 138.71966246745376 141.50546471422632 122.79264401220445 H 0.0 **** 0.06
31299 H 138.24988341656024 143.1668124510281 122.35901531282036 H 0.0 **** 0.06
31300 H 139.85313756408766 142.54702430106371 121.89876295978337 H 0.0 **** 0.06
31301 C 42.98479280474878 160.5850529939404 5.784172692377098 C 0.0 **** -0.24
31302 H 42.232245972405195 160.003444502812 6.317215871423684 H 0.0 **** 0.06
31303 H 43.95781758514606 160.43517644823723 6.251919398079821 H 0.0 **** 0.06
31304 H 42.72075473817492 161.641270226397 5.82281471634127 H 0.0 **** 0.06
31305 H 43.025733593594865 160.25855357551927 4.7448685137177335 H 0.0 **** 0.06
31306 C 5.305778634911178 115.62771630424399 161.76460882893016 C 0.0 **** -0.24
31307 H 5.419634460212507 116.63090010099259 162.1755556737119 H 0.0 **** 0.06
31308 H 5.317554383595535 114.89924814631075 162.57517508273628 H 0.0 **** 0.06
31309 H 6.125907408876856 115.42131230513726 161.07758237848415 H 0.0 **** 0.06
31310 H 4.358475623527937 115.56008981417929 161.22865558637943 H 0.0 **** 0.06
31311 C 43.70883562631661 32.732088027655394 5.1312955389629735 C 0.0 **** -0.24
31312 H 42.947793552316796 33.324049791143025 5.639978568405809 H 0.0 **** 0.06
31313 H 43.438689032749735 32.617811789860426 4.082190728105644 H 0.0 **** 0.06
31314 H 43.77738181126051 31.74962787139367 5.599328306458972 H 0.0 **** 0.06
31315 H 44.67152602401403 33.237900104798655 5.206671472376712 H 0.0 **** 0.06
31316 C 34.67101486243223 27.73471218363366 52.21243495425921 C 0.0 **** -0.24
31317 H 33.62369827951022 27.446369444961533 52.11605726638628 H 0.0 **** 0.06
31318 H 34.86197002927713 28.069049986798575 53.23339362750201 H 0.0 **** 0.06
31319 H 34.88952974271547 28.54576779549916 51.518050178954084 H 0.0 **** 0.06
31320 H 35.306483748047526 26.87970503224443 51.98526716226917 H 0.0 **** 0.06
31321 C 37.767388974162614 114.63885827736323 123.94284690606614 C 0.0 **** -0.24
31322 H 38.02787515919768 113.6133542149062 124.20270748524052 H 0.0 **** 0.06
31323 H 38.062159618609996 114.83816738140749 122.91225030645407 H 0.0 **** 0.06
31324 H 38.287373704587296 115.32638074442096 124.6101631206507 H 0.0 **** 0.06
31325 H 36.69087559067057 114.77762931344157 124.04565613058136 H 0.0 **** 0.06
31326 C 130.81067004600465 34.830429286857395 65.1458252252263 C 0.0 **** -0.24
31327 H 131.38274897434673 35.75716257153266 65.11755385310914 H 0.0 **** 0.06
31328 H 130.24214547690758 34.72625978768889 64.22117191646385 H 0.0 **** 0.06
31329 H 130.12623164477208 34.851163397043535 65.99329990248083 H 0.0 **** 0.06
31330 H 131.49308418981667 33.985881877847305 65.25022754352841 H 0.0 **** 0.06
31331 C 134.96638745046766 70.42775924241036 122.80802895201089 C 0.0 **** -0.24
31332 H 134.46184086147798 69.85505260406896 123.58669130023395 H 0.0 **** 0.06
31333 H 134.48789532269723 71.40228106419046 122.70705515222042 H 0.0 **** 0.06
31334 H 134.90173265072343 69.89058910919736 121.86184176806086 H 0.0 **** 0.06
31335 H 136.01365998722196 70.56368906034314 123.0788711895085 H 0.0 **** 0.06
31336 C 167.3349319533233 82.25870743465126 57.302642883066824 C 0.0 **** -0.24
31337 H 167.77814799385405 83.06710349251668 57.884565174570795 H 0.0 **** 0.06
31338 H 167.80647260041522 82.21764787089694 56.32085537503205 H 0.0 **** 0.06
31339 H 166.26585868226874 82.44020542718067 57.18534391811366 H 0.0 **** 0.06
31340 H 167.48817505050104 81.31251134478967 57.820748733858906 H 0.0 **** 0.06
31341 C 33.195210803264104 27.753314666342817 91.44559523626657 C 0.0 **** -0.24
31342 H 34.245505972977526 27.771704235810518 91.73564531959244 H 0.0 **** 0.06
31343 H 33.106524531154776 27.996733676843448 90.38650688556953 H 0.0 **** 0.06
31344 H 32.642615296577674 28.48544244141283 92.03519623449355 H 0.0 **** 0.06
31345 H 32.78612455263857 26.75852832386292 91.62616045429084 H 0.0 **** 0.06
31346 C 114.91470345476372 29.303614787166737 34.765632042030546 C 0.0 **** -0.24
31347 H 114.96257626777023 29.949578573430188 35.64302089601428 H 0.0 **** 0.06
31348 H 115.81717092314466 28.695304370976203 34.71294364008324 H 0.0 **** 0.06
31349 H 114.83617959073015 29.916570468724444 33.868328587004015 H 0.0 **** 0.06
31350 H 114.0420394211585 28.65493880824988 34.84011786206628 H 0.0 **** 0.06
31351 C 144.02234223624993 105.7654932947417 106.40739160512675 C 0.0 **** -0.24
31352 H 143.8745056887563 104.82850368549336 105.8704139391696 H 0.0 **** 0.06
31353 H 144.83781721187353 105.6486176302015 107.12272361980408 H 0.0 **** 0.06
31354 H 143.10753686805634 106.02820650322514 106.93856115560547 H 0.0 **** 0.06
31355 H 144.2704664259228 106.55446299466058 105.69843438228912 H 0.0 **** 0.06
31356 C 92.96469948903112 125.86368642367262 72.03576672985801 C 0.0 **** -0.24
31357 H 93.81640784543856 126.49055071111374 72.29878994226516 H 0.0 **** 0.06
31358 H 92.6105828194955 126.1316623744928 71.03995927868132 H 0.0 **** 0.06
31359 H 92.16456000095656 126.0177003943997 72.75955307492052 H 0.0 **** 0.06
31360 H 93.26804975669444 124.81714631342996 72.04479871411729 H 0.0 **** 0.06
31361 C 11.252506327290632 33.4496035950481 162.42860919977878 C 0.0 **** -0.24
31362 H 10.653660799494276 33.678468563328735 163.31038471367236 H 0.0 **** 0.06
31363 H 10.828353868906078 33.9565794207313 161.56086243957583 H 0.0 **** 0.06
31364 H 11.251554897226924 32.37288137881069 162.25757831868543 H 0.0 **** 0.06
31365 H 12.274921630687174 33.79204788140913 162.58515956034563 H 0.0 **** 0.06
31366 C 59.41935827101261 107.39259719937408 130.8914770545169 C 0.0 **** -0.24
31367 H 59.53262162314313 107.2321772849339 131.96400214544042 H 0.0 **** 0.06
31368 H 59.58321309175872 106.4518398213267 130.36515836757877 H 0.0 **** 0.06
31369 H 60.14936060116936 108.12937897099548 130.555476430701 H 0.0 **** 0.06
31370 H 58.4134506926969 107.75590416313023 130.6828022860086 H 0.0 **** 0.06
31371 C 69.40121893173547 78.29064801708824 145.63733790048076 C 0.0 **** -0.24
31372 H 70.39861620276098 77.92752548363876 145.88868217197367 H 0.0 **** 0.06
31373 H 69.46048696462931 78.93770562484028 144.76167188980259 H 0.0 **** 0.06
31374 H 68.9974055107341 78.85444746910548 146.47893110090163 H 0.0 **** 0.06
31375 H 68.75125921973073 77.44343858617182 145.4216026454414 H 0.0 **** 0.06
31376 C 4.58924887395537 150.28356921376917 159.54902070196397 C 0.0 **** -0.24
31377 H 4.067293848909742 149.98970268564716 160.4598267228883 H 0.0 **** 0.06
31378 H 4.707909570844464 149.41442586529234 158.90141226644954 H 0.0 **** 0.06
31379 H 5.570203195142682 150.68245966766318 159.80591793902192 H 0.0 **** 0.06
31380 H 4.0109128701466545 151.0474524679778 159.02962392089978 H 0.0 **** 0.06
31381 C 28.279673586843387 131.1931323401185 165.6321837953299 C 0.0 **** -0.24
31382 H 27.499616908021324 131.6537503361015 166.23778498859386 H 0.0 **** 0.06
31383 H 28.36509592128931 131.72381052334282 164.684014047253 H 0.0 **** 0.06
31384 H 28.024923573844063 130.15028004708117 165.4433565976859 H 0.0 **** 0.06
31385 H 29.22997504823462 131.2436943686085 166.16399279157076 H 0.0 **** 0.06
31386 C 1.166450464276565 59.94970153743225 134.4759019317368 C 0.0 **** -0.24
31387 H 1.7939789176167338 60.68369410463049 134.98175284405622 H 0.0 **** 0.06
31388 H 1.7788391251147573 59.35430769266088 133.79839658521465 H 0.0 **** 0.06
31389 H 0.3926063752716331 60.465527617979774 133.90738986856852 H 0.0 **** 0.06
31390 H 0.7015755470703553 59.29831600264998 135.2154959839966 H 0.0 **** 0.06
31391 C 167.25810234168165 19.503457326136697 68.21149834014693 C 0.0 **** -0.24
31392 H 167.1445941769105 20.134606603079646 69.09299858212921 H 0.0 **** 0.06
31393 H 167.76429930287185 20.064699208612467 67.42561769313454 H 0.0 **** 0.06
31394 H 166.27459985274402 19.191518641469372 67.85928205535743 H 0.0 **** 0.06
31395 H 167.84848787696083 18.623890085536743 68.46791317890876 H 0.0 **** 0.06
31396 C 163.33988235445676 30.704613442356617 35.832029041522645 C 0.0 **** -0.24
31397 H 163.67641929411894 29.725478934462558 35.48923358222548 H 0.0 **** 0.06
31398 H 163.06220887552823 31.313870806575153 34.971981900493944 H 0.0 **** 0.06
31399 H 164.14562637978258 31.194042830198555 36.37938599296902 H 0.0 **** 0.06
31400 H 162.47784690238726 30.583781163714946 36.48665074348109 H 0.0 **** 0.06
31401 C 89.02077960998 50.13638018511695 63.590477649665274 C 0.0 **** -0.24
31402 H 89.88605316566704 49.989714946763286 62.9443893013995 H 0.0 **** 0.06
31403 H 88.2602303678438 49.39256255475367 63.353584508936734 H 0.0 **** 0.06
31404 H 88.61465138747674 51.13633624694553 63.431953270403056 H 0.0 **** 0.06
31405 H 89.32317700716547 50.029145569594434 64.6320273254455 H 0.0 **** 0.06
31406 C 170.23114352565574 6.852647091128034 20.791121798492213 C 0.0 **** -0.24
31407 H 170.3344460778857 6.892928983493988 19.706582657424377 H 0.0 **** 0.06
31408 H 170.93404762408426 6.123995173492034 21.195872853723102 H 0.0 **** 0.06
31409 H 169.21355642459275 6.558150290462827 21.047974506238887 H 0.0 **** 0.06
31410 H 170.4422434733586 7.834477893241925 21.213136291823275 H 0.0 **** 0.06
31411 C 23.17100631776674 70.15200728611904 86.08764006698078 C 0.0 **** -0.24
31412 H 23.956089886616525 69.51595866087291 85.67693194317832 H 0.0 **** 0.06
31413 H 23.357156470243353 70.31782226039985 87.14917514657748 H 0.0 **** 0.06
31414 H 22.204847621777617 69.66518073012986 85.95891387034709 H 0.0 **** 0.06
31415 H 23.169230912404032 71.1087556700619 85.56541448120964 H 0.0 **** 0.06
31416 C 164.91522966789194 118.1524343218619 107.52033790165947 C 0.0 **** -0.24
31417 H 165.67239168887096 118.0695416463501 108.29997734433701 H 0.0 **** 0.06
31418 H 165.3788051003088 118.51152990750163 106.60154991651939 H 0.0 **** 0.06
31419 H 164.14389434847348 118.85489755404345 107.8366659401064 H 0.0 **** 0.06
31420 H 164.46711231777144 117.17477152185137 107.34374382729055 H 0.0 **** 0.06
31421 C 38.54580683054576 0.4738358847475297 42.9761462712716 C 0.0 **** -0.24
31422 H 38.2082271653681 0.14017250489365551 43.95789060247614 H 0.0 **** 0.06
31423 H 39.62114368840281 0.318677586298719 42.88886094666998 H 0.0 **** 0.06
31424 H 38.31981357014661 1.533839043143189 42.85614809318173 H 0.0 **** 0.06
31425 H 38.03209091337578 -0.09706139080020648 42.20273859157331 H 0.0 **** 0.06
31426 C 110.28060004365511 99.44246451660138 16.641402984415123 C 0.0 **** -0.24
31427 H 109.70278689083193 99.72804951782086 15.761776710184932 H 0.0 **** 0.06
31428 H 109.60994219054055 99.32636497251025 17.493548606680605 H 0.0 **** 0.06
31429 H 111.01574296672095 100.21666085938023 16.859685078567225 H 0.0 **** 0.06
31430 H 110.79183164100323 98.49880551802767 16.449334894629146 H 0.0 **** 0.06
31431 C 88.16576088271871 14.249790552557158 19.693276350880666 C 0.0 **** -0.24
31432 H 87.35747428141487 14.234805190477118 20.42440041276251 H 0.0 **** 0.06
31433 H 88.23769267551624 15.243820316121628 19.25217112068185 H 0.0 **** 0.06
31434 H 87.9601020724496 13.51824878640042 18.910409602741822 H 0.0 **** 0.06
31435 H 89.10566471000212 14.000023877504077 20.184931283165696 H 0.0 **** 0.06
31436 C 127.78072632862418 130.45006333637642 66.55616568685352 C 0.0 **** -0.24
31437 H 128.3998260556648 131.08068734187813 67.19603687781934 H 0.0 **** 0.06
31438 H 128.2475327404707 130.3595238621661 65.57542078695352 H 0.0 **** 0.06
31439 H 126.79336233859175 130.8998000254357 66.4503240422989 H 0.0 **** 0.06
31440 H 127.68329736747035 129.462211031889 67.00660726016542 H 0.0 **** 0.06
31441 C 1.2047573383591157 162.2860533478367 21.400316916279763 C 0.0 **** -0.24
31442 H 1.3420174233308444 163.3484608568787 21.603472420576438 H 0.0 **** 0.06
31443 H 1.7308883200288392 162.0218236706295 20.481723906162152 H 0.0 **** 0.06
31444 H 0.1422499783673743 162.07208157744068 21.286113735240995 H 0.0 **** 0.06
31445 H 1.6067323704542673 161.70348619780447 22.229580920990266 H 0.0 **** 0.06
31446 C 89.24108444564843 110.21201105335444 14.296000400991716 C 0.0 **** -0.24
31447 H 88.30045435969532 109.94079104174557 14.774554380140899 H 0.0 **** 0.06
31448 H 89.34087807852131 109.66833354909832 13.356076354951483 H 0.0 **** 0.06
31449 H 90.07131268001342 109.95627752565207 14.953703679788418 H 0.0 **** 0.06
31450 H 89.2517495423698 111.28454481309387 14.098493913449204 H 0.0 **** 0.06
31451 C 10.402572571629975 126.68540044589474 134.86993161518632 C 0.0 **** -0.24
31452 H 11.373613682156162 126.89237388895171 135.32066919236334 H 0.0 **** 0.06
31453 H 9.809236472970753 126.07505458142504 135.55123067032093 H 0.0 **** 0.06
31454 H 10.5451803437779 126.15094122062936 133.9307306013967 H 0.0 **** 0.06
31455 H 9.88446178975326 127.62480601656543 134.67873130372027 H 0.0 **** 0.06
31456 C 30.57708432792313 99.38023987606616 45.376751234579956 C 0.0 **** -0.24
31457 H 31.467563929823598 99.57610829332654 44.77824988421139 H 0.0 **** 0.06
31458 H 30.094323046040756 98.47004123504806 45.022374125117764 H 0.0 **** 0.06
31459 H 29.886543293383028 100.21815532159772 45.284632006750144 H 0.0 **** 0.06
31460 H 30.86241560655992 99.25819487679888 46.42232777636639 H 0.0 **** 0.06
31461 C 9.565518599993169 29.020719202899556 45.7247524943657 C 0.0 **** -0.24
31462 H 8.988945739623887 28.39620785219853 45.041375195699175 H 0.0 **** 0.06
31463 H 8.899156199612548 29.45168731149255 46.471928393417926 H 0.0 **** 0.06
31464 H 10.049922553354207 29.820302346361018 45.164795553388004 H 0.0 **** 0.06
31465 H 10.322478332952215 28.413076371429156 46.21993056130063 H 0.0 **** 0.06
31466 C 62.85601529670174 168.18578501422914 166.59107488268975 C 0.0 **** -0.24
31467 H 62.463481809680275 168.9641203904435 165.93610716578308 H 0.0 **** 0.06
31468 H 63.71325890546444 167.70926619268312 166.11535185711273 H 0.0 **** 0.06
31469 H 62.08159910763692 167.44161301759075 166.77531595446143 H 0.0 **** 0.06
31470 H 63.166014749678595 168.6303308356509 167.53718352205965 H 0.0 **** 0.06
31471 C 83.16482683725884 159.92606519274142 60.008064506536186 C 0.0 **** -0.24
31472 H 82.54615236800421 159.14148898536058 60.44419094772269 H 0.0 **** 0.06
31473 H 83.25617373144924 160.75113057326277 60.71518194759523 H 0.0 **** 0.06
31474 H 82.70337589820173 160.28445095403288 59.087544610167754 H 0.0 **** 0.06
31475 H 84.1545194261229 159.52537040426063 59.78626395894349 H 0.0 **** 0.06
31476 C 68.2043511158129 58.00994401494057 102.84195200526807 C 0.0 **** -0.24
31477 H 68.48468138964807 58.94928170959241 102.36517131941622 H 0.0 **** 0.06
31478 H 67.14978274939928 57.808595632420236 102.65520469350821 H 0.0 **** 0.06
31479 H 68.37748661773065 58.08207612145145 103.91556424177412 H 0.0 **** 0.06
31480 H 68.80809654175216 57.201225867550306 102.42962129301992 H 0.0 **** 0.06
31481 C 47.8546183821482 36.41744950317462 40.85527666413873 C 0.0 **** -0.24
31482 H 48.88585084103666 36.69819507580061 41.07156293356097 H 0.0 **** 0.06
31483 H 47.84254366007333 35.469431193397554 40.31593936987181 H 0.0 **** 0.06
31484 H 47.38867812288706 37.18962132026715 40.24401198026629 H 0.0 **** 0.06
31485 H 47.30285205898657 36.31086153813578 41.789387537017234 H 0.0 **** 0.06
31486 C 156.89438555344535 150.09320164251693 98.51871893853075 C 0.0 **** -0.24
31487 H 157.8433392903545 150.43474702028522 98.93317613605109 H 0.0 **** 0.06
31488 H 156.82231361193362 149.00988674857103 98.62205188714165 H 0.0 **** 0.06
31489 H 156.84187043148273 150.36200258957456 97.46410982944008 H 0.0 **** 0.06
31490 H 156.07241927120535 150.56589677318334 99.0559422789321 H 0.0 **** 0.06
31491 C 32.149259424522214 49.38702714875242 161.69539338055847 C 0.0 **** -0.24
31492 H 31.852734614388567 49.31534122271006 162.741361029387 H 0.0 **** 0.06
31493 H 32.82707537659441 50.23134235699686 161.56693884060888 H 0.0 **** 0.06
31494 H 31.263834862639087 49.53395742951264 161.07635457596717 H 0.0 **** 0.06
31495 H 32.653392844466794 48.46746758579005 161.39691907627093 H 0.0 **** 0.06
31496 C 116.86888722823704 114.98875084381638 103.86047130142947 C 0.0 **** -0.24
31497 H 116.40222615861813 115.52485982902195 103.03398670292626 H 0.0 **** 0.06
31498 H 117.62411721446603 114.30660810641629 103.46941228652801 H 0.0 **** 0.06
31499 H 116.11044404170417 114.42167235097173 104.3989182001053 H 0.0 **** 0.06
31500 H 117.3382566973022 115.70236930149466 104.5374492749005 H 0.0 **** 0.06
31501 C 117.1144869069692 21.16820043983723 92.58251118856879 C 0.0 **** -0.24
31502 H 117.87280432994373 21.842162377571412 92.1833017291612 H 0.0 **** 0.06
31503 H 116.94923293132837 21.39156982854837 93.63680120667249 H 0.0 **** 0.06
31504 H 117.45385311120913 20.1380022389326 92.4778191987312 H 0.0 **** 0.06
31505 H 116.18365689676665 21.302915334486954 92.03196095199479 H 0.0 **** 0.06
31506 C 39.99219679172175 31.389476833084586 21.800410888079625 C 0.0 **** -0.24
31507 H 39.36101173361692 31.748411476696333 22.612794728234064 H 0.0 **** 0.06
31508 H 40.78190146498818 30.756876817587056 22.206765361206976 H 0.0 **** 0.06
31509 H 40.4371072697095 32.239680751348374 21.283497794943855 H 0.0 **** 0.06
31510 H 39.3880406261559 30.812744567492416 21.099783727854913 H 0.0 **** 0.06
31511 C 127.01235694963674 56.31783507715335 26.2356571383188 C 0.0 **** -0.24
31512 H 126.46475510428996 57.14892378323235 25.791397121920937 H 0.0 **** 0.06
31513 H 126.56089266192296 56.056228055144686 27.193202425637253 H 0.0 **** 0.06
31514 H 128.05116134956933 56.61000870053667 26.392000351865875 H 0.0 **** 0.06
31515 H 126.97289430518069 55.457801868244175 25.56716572918856 H 0.0 **** 0.06
31516 C 8.568852324729505 135.80053522534485 110.33820891418173 C 0.0 **** -0.24
31517 H 8.853535642472252 135.73281103059452 111.38816416334205 H 0.0 **** 0.06
31518 H 7.727529890631217 135.1344118006511 110.14666431460591 H 0.0 **** 0.06
31519 H 9.412387949212984 135.5101047377926 109.71300820228515 H 0.0 **** 0.06
31520 H 8.280492809232669 136.8258548374596 110.10666482286075 H 0.0 **** 0.06
31521 C 26.453443199785 47.367446016702246 126.56436440318808 C 0.0 **** -0.24
31522 H 26.054880688571586 47.140810589691455 127.55332471444771 H 0.0 **** 0.06
31523 H 25.96782581826372 48.26208185111852 126.17372814414125 H 0.0 **** 0.06
31524 H 26.26397379668566 46.52873913739073 125.89499359349591 H 0.0 **** 0.06
31525 H 27.527645694051984 47.53981723131656 126.63784485222479 H 0.0 **** 0.06
31526 C 35.02882550776866 88.97639074106186 2.5133609706166666 C 0.0 **** -0.24
31527 H 35.98797074665433 88.79807822221993 2.999331377462589 H 0.0 **** 0.06
31528 H 34.923292731477574 90.03989107774342 2.2984562032059657 H 0.0 **** 0.06
31529 H 34.222551331275895 88.65818893581756 3.1744848298242374 H 0.0 **** 0.06
31530 H 34.981866279694856 88.40993655749911 1.5833100725794722 H 0.0 **** 0.06
31531 C 71.4853887181037 133.14432093757412 99.53866992930733 C 0.0 **** -0.24
31532 H 71.29022928566826 133.6790014204829 98.60865122811515 H 0.0 **** 0.06
31533 H 71.05993361715116 132.14255639467103 99.47691274497947 H 0.0 **** 0.06
31534 H 71.0300506190383 133.68299541620786 100.36906753142148 H 0.0 **** 0.06
31535 H 72.56171777713905 133.07324349814965 99.69679314549364 H 0.0 **** 0.06
31536 C 113.83640842286707 7.288809938787381 85.71723316792077 C 0.0 **** -0.24
31537 H 114.29756597078568 6.6412040734020295 86.46217847693941 H 0.0 **** 0.06
31538 H 114.6092252937442 7.70319997183428 85.06851580495784 H 0.0 **** 0.06
31539 H 113.30930025751132 8.100473518671208 86.21837325928948 H 0.0 **** 0.06
31540 H 113.13217674344617 6.7113699427034845 85.12007412854744 H 0.0 **** 0.06
31541 C 93.51324354928141 20.34594868163424 140.93845250218968 C 0.0 **** -0.24
31542 H 92.90120190497322 19.4560228963893 141.08375320924998 H 0.0 **** 0.06
31543 H 94.30141243666239 20.1300460343013 140.215894485514 H 0.0 **** 0.06
31544 H 93.96120115729636 20.63835011134867 141.8881327478913 H 0.0 **** 0.06
31545 H 92.88944237349281 21.157947254705704 140.5643327289534 H 0.0 **** 0.06
31546 C 69.47859225485303 114.47917678134294 64.427668394443 C 0.0 **** -0.24
31547 H 69.8666490812705 115.19515557050849 65.15171013338772 H 0.0 **** 0.06
31548 H 68.40683281518969 114.34976833710357 64.58371771209721 H 0.0 **** 0.06
31549 H 69.9834067941109 113.52185703734315 64.55668145297057 H 0.0 **** 0.06
31550 H 69.65689243402024 114.85110404240729 63.41804748470133 H 0.0 **** 0.06
31551 C 63.21769109402254 107.1815124976273 37.68206190201711 C 0.0 **** -0.24
31552 H 63.920254360565025 106.4490262785902 38.08136507199214 H 0.0 **** 0.06
31553 H 63.135729481518766 107.05484673951142 36.60268464783451 H 0.0 **** 0.06
31554 H 63.576784074537855 108.18632160987428 37.904064284734616 H 0.0 **** 0.06
31555 H 62.240053427261245 107.03526766979743 38.14132677924394 H 0.0 **** 0.06
31556 C 71.76048925412056 74.53382688399734 164.27714416804798 C 0.0 **** -0.24
31557 H 70.90654803434954 73.85644130990909 164.30426209119332 H 0.0 **** 0.06
31558 H 72.63819078814946 73.99875590477694 163.9155778124365 H 0.0 **** 0.06
31559 H 71.95325824193634 74.91408041061135 165.28111508533536 H 0.0 **** 0.06
31560 H 71.54067104513148 75.36688202073526 163.60882889608718 H 0.0 **** 0.06
31561 C 113.24720521281057 124.90989839111515 146.71077700647498 C 0.0 **** -0.24
31562 H 112.81319236935957 123.93775256310641 146.47556530573155 H 0.0 **** 0.06
31563 H 113.03549360660381 125.16019710373422 147.7508433342589 H 0.0 **** 0.06
31564 H 112.81351457301528 125.66781861002681 146.05811969469278 H 0.0 **** 0.06
31565 H 114.32571009341757 124.872117488468 146.5580746627695 H 0.0 **** 0.06
31566 C 53.18556185939683 7.8009682938987055 69.86544916339966 C 0.0 **** -0.24
31567 H 53.86271034594304 7.095743647082372 69.38383697306361 H 0.0 **** 0.06
31568 H 53.54688218035629 8.022214396818754 70.87043275107455 H 0.0 **** 0.06
31569 H 52.18855756590388 7.363793209157848 69.92600152679415 H 0.0 **** 0.06
31570 H 53.143587238220064 8.7211731104357 69.28348491432475 H 0.0 **** 0.06
31571 C 52.68065165046531 154.7804712732755 43.25346157727972 C 0.0 **** -0.24
31572 H 52.991576088826704 153.77267312996665 43.528959462132235 H 0.0 **** 0.06
31573 H 52.32893870972005 155.30755016309655 44.14059800875036 H 0.0 **** 0.06
31574 H 51.87731035307108 154.72473788260217 42.51974044634015 H 0.0 **** 0.06
31575 H 53.528043245701056 155.31632330150788 42.82453232488132 H 0.0 **** 0.06
31576 C 134.0509832036674 109.80460427879683 17.737319726676965 C 0.0 **** -0.24
31577 H 133.42245668037617 110.25156156221666 18.508069233849994 H 0.0 **** 0.06
31578 H 134.40979538163387 110.5833736781855 17.064455531646445 H 0.0 **** 0.06
31579 H 133.46946106379536 109.07592787397672 17.172251684472485 H 0.0 **** 0.06
31580 H 134.90082817070916 109.30780610386773 18.20448914751553 H 0.0 **** 0.06
31581 C 57.11917833312614 162.8303808286842 169.60713017443848 C 0.0 **** -0.24
31582 H 57.95669346857335 163.5202809261948 169.7160359618853 H 0.0 **** 0.06
31583 H 56.40782943067802 163.2353321604709 168.88630052419762 H 0.0 **** 0.06
31584 H 56.626447172792126 162.70266784115518 170.5707424245898 H 0.0 **** 0.06
31585 H 57.48507933758145 161.86692314251403 169.25554965589797 H 0.0 **** 0.06
31586 C 137.02855157048123 55.78965455859047 82.85300720649246 C 0.0 **** -0.24
31587 H 136.20048018748065 55.789321876187245 82.14377460991025 H 0.0 **** 0.06
31588 H 137.83997514435055 56.404870540307 82.46418942918581 H 0.0 **** 0.06
31589 H 137.3828875994157 54.7684897894719 82.99709990453442 H 0.0 **** 0.06
31590 H 136.68934187657158 56.19429922974719 83.80688648343738 H 0.0 **** 0.06
31591 C 18.637578082887067 79.63298294478551 149.08690236976264 C 0.0 **** -0.24
31592 H 18.602490848423137 80.37661989131678 148.291484787851 H 0.0 **** 0.06
31593 H 18.80744193402814 78.6468905135002 148.65540479728537 H 0.0 **** 0.06
31594 H 17.69114658615797 79.63485339615227 149.62783038257072 H 0.0 **** 0.06
31595 H 19.44948288611863 79.87395138934134 149.77422764068837 H 0.0 **** 0.06
31596 C 51.08910905071028 45.2608439583844 51.709948546748606 C 0.0 **** -0.24
31597 H 51.485865287026456 45.47830371685542 52.70130413900888 H 0.0 **** 0.06
31598 H 50.140426101280525 44.7324513175887 51.80714977523415 H 0.0 **** 0.06
31599 H 51.7977714116156 44.63966201721368 51.162597811918005 H 0.0 **** 0.06
31600 H 50.930770013171355 46.19450274000167 51.16895570786288 H 0.0 **** 0.06
31601 C 101.78870687547848 162.7476580003947 151.8802613808617 C 0.0 **** -0.24
31602 H 100.75442632873859 162.56450334818769 151.5919277858999 H 0.0 **** 0.06
31603 H 102.13589127572715 163.67428996936914 151.4224203703992 H 0.0 **** 0.06
31604 H 102.41193906224018 161.91906449860466 151.54203117667697 H 0.0 **** 0.06
31605 H 101.85373265658379 162.83198032014752 152.96480762910804 H 0.0 **** 0.06
31606 C 42.75213257961971 65.80456366303034 72.83062053186916 C 0.0 **** -0.24
31607 H 42.472993762227716 65.15367791708242 73.65960332444024 H 0.0 **** 0.06
31608 H 42.28787499997421 65.4422568625725 71.91275022502109 H 0.0 **** 0.06
31609 H 43.83645134120431 65.80074289205116 72.71614594370487 H 0.0 **** 0.06
31610 H 42.41084297369542 66.81901253812086 73.0357962078021 H 0.0 **** 0.06
31611 C 70.45402789422664 89.96178405712996 8.481829109891237 C 0.0 **** -0.24
31612 H 70.03471419743964 90.84659027286713 8.961676161801847 H 0.0 **** 0.06
31613 H 70.06375218553814 89.0664029315058 8.96607667851032 H 0.0 **** 0.06
31614 H 71.53979067173519 89.98046957141703 8.571434935573393 H 0.0 **** 0.06
31615 H 70.17595549714174 89.95565523902061 7.427445691934054 H 0.0 **** 0.06
31616 C 80.17747389579024 1.348005056393788 16.73898496717726 C 0.0 **** -0.24
31617 H 79.12044490598481 1.3615430873664423 16.47448808008346 H 0.0 **** 0.06
31618 H 80.29864842789554 1.6917598003828402 17.766826213406375 H 0.0 **** 0.06
31619 H 80.72769446394771 2.0079881266670725 16.067339305107737 H 0.0 **** 0.06
31620 H 80.56156029434773 0.3326221808846981 16.64743494713639 H 0.0 **** 0.06
31621 C 34.64772311426748 150.22908522958548 64.92302563367119 C 0.0 **** -0.24
31622 H 34.84349687000832 151.27271498233222 64.67741872684 H 0.0 **** 0.06
31623 H 35.594010597259796 149.70335001956465 65.05454636549533 H 0.0 **** 0.06
31624 H 34.08350804029095 149.7662094444112 64.11310368942718 H 0.0 **** 0.06
31625 H 34.069591637755394 150.1753173042136 65.84494708484826 H 0.0 **** 0.06
31626 C 147.43833156424716 107.92031973461735 67.86472106549422 C 0.0 **** -0.24
31627 H 146.59566734288072 107.73335576777734 68.53036787180889 H 0.0 **** 0.06
31628 H 147.07134202008297 108.3148816979838 66.91706515472919 H 0.0 **** 0.06
31629 H 147.9753661258395 106.98862046653059 67.68694441424338 H 0.0 **** 0.06
31630 H 148.11029647691024 108.64540747247747 68.32528067068341 H 0.0 **** 0.06
31631 C 12.134637977033435 103.56206999978536 163.49227680379425 C 0.0 **** -0.24
31632 H 11.558857764979791 102.78962322301362 164.00275239426486 H 0.0 **** 0.06
31633 H 12.260969621956349 104.41803883839026 164.15503833108505 H 0.0 **** 0.06
31634 H 11.605099313324473 103.8732807321008 162.5925213742389 H 0.0 **** 0.06
31635 H 13.112568219743423 103.16561745728478 163.21975708302963 H 0.0 **** 0.06
31636 C 153.30632043130808 138.28140967854353 142.20943970548535 C 0.0 **** -0.24
31637 H 152.35406039754628 138.80305762187777 142.1093524458714 H 0.0 **** 0.06
31638 H 153.74415705786467 138.50879705162424 143.18132048623858 H 0.0 **** 0.06
31639 H 153.98301626099453 138.60737449735308 141.4186249884607 H 0.0 **** 0.06
31640 H 153.1415933832395 137.20734921109636 142.12643799629535 H 0.0 **** 0.06
31641 C 34.51944751815702 108.31822688756117 59.91129932843734 C 0.0 **** -0.24
31642 H 34.121483547688854 108.74302062332129 60.83204799306225 H 0.0 **** 0.06
31643 H 33.812009910413906 107.59070799944868 59.51113119698371 H 0.0 **** 0.06
31644 H 35.46840703861176 107.82452796213985 60.11982840235902 H 0.0 **** 0.06
31645 H 34.675216046442415 109.11285717359078 59.18276311558719 H 0.0 **** 0.06
31646 C 39.41766636252136 138.85262773551307 4.355647863577474 C 0.0 **** -0.24
31647 H 40.07680018234181 138.16810166454582 3.821425194811866 H 0.0 **** 0.06
31648 H 39.52298422108774 139.85581361434646 3.941265846032593 H 0.0 **** 0.06
31649 H 39.686053155419685 138.86494447257223 5.41224051237657 H 0.0 **** 0.06
31650 H 38.384720923472244 138.52032968548605 4.247167724263647 H 0.0 **** 0.06
31651 C 103.2048944793305 18.357761504817482 163.81125279513947 C 0.0 **** -0.24
31652 H 103.53173098969353 19.21147545262943 163.21755036407387 H 0.0 **** 0.06
31653 H 103.98519132817916 18.093893395587465 164.52677057922466 H 0.0 **** 0.06
31654 H 103.01232759111633 17.51055674665411 163.1537763706995 H 0.0 **** 0.06
31655 H 102.29242381518173 18.616916873858855 164.34808886203984 H 0.0 **** 0.06
31656 C 168.50659571875755 98.78346975400666 148.53316929492945 C 0.0 **** -0.24
31657 H 169.3397987214072 98.0918155321223 148.41371493268753 H 0.0 **** 0.06
31658 H 168.2636626599758 99.22946829941083 147.56791126993872 H 0.0 **** 0.06
31659 H 168.78508740413528 99.56865356613704 149.2370485366165 H 0.0 **** 0.06
31660 H 167.63874812153298 98.24539463627642 148.91423345602539 H 0.0 **** 0.06
31661 C 115.46278875024848 126.84686834016003 143.7871468270228 C 0.0 **** -0.24
31662 H 115.84837306354837 126.90602610328563 144.80600076212454 H 0.0 **** 0.06
31663 H 115.36257216412261 127.85307835577936 143.37860030343683 H 0.0 **** 0.06
31664 H 114.48877406575167 126.35882503894044 143.7956488100529 H 0.0 **** 0.06
31665 H 116.15338777566234 126.27085617944016 143.1712473544377 H 0.0 **** 0.06
31666 C 81.27558594994052 18.764726137471193 116.593998860283 C 0.0 **** -0.24
31667 H 81.53535065429188 19.816968825534843 116.71515101345344 H 0.0 **** 0.06
31668 H 80.20057672584163 18.639288541080965 116.72760946637223 H 0.0 **** 0.06
31669 H 81.80628351657914 18.17147032530633 117.33819963981273 H 0.0 **** 0.06
31670 H 81.5595823388335 18.434595596629883 115.59513248194438 H 0.0 **** 0.06
31671 C 107.17261688591174 120.06074569508542 143.8779826642898 C 0.0 **** -0.24
31672 H 108.0963988544745 119.74377589836143 143.3923343840656 H 0.0 **** 0.06
31673 H 107.18603309489617 121.14208124265292 144.01337696041276 H 0.0 **** 0.06
31674 H 107.08737269257875 119.57249593539927 144.8495920656072 H 0.0 **** 0.06
31675 H 106.32207399506689 119.78239230555005 143.25521193248403 H 0.0 **** 0.06
31676 C 95.48453170318155 93.81213759834768 53.604673426071514 C 0.0 **** -0.24
31677 H 94.5830105086049 93.9384310918947 53.005780569555895 H 0.0 **** 0.06
31678 H 96.17871748096374 93.1544938376986 53.080661022131636 H 0.0 **** 0.06
31679 H 95.22309550941759 93.37269039789672 54.56680046189001 H 0.0 **** 0.06
31680 H 95.95381058194698 94.78332935837804 53.76419178235324 H 0.0 **** 0.06
31681 C 60.50015625957347 17.65090235070761 50.77595957967333 C 0.0 **** -0.24
31682 H 61.162043808999414 18.517106341882105 50.80409733287945 H 0.0 **** 0.06
31683 H 59.5402497306397 17.942218885510407 50.34847701499095 H 0.0 **** 0.06
31684 H 60.34884577862411 17.278038606387426 51.78960004230504 H 0.0 **** 0.06
31685 H 60.950119170055785 16.86975187003791 50.16417492934572 H 0.0 **** 0.06
31686 C 74.74942589041139 99.29166733007563 82.74614996213666 C 0.0 **** -0.24
31687 H 73.91991731844159 98.95318761068995 83.3660613761553 H 0.0 **** 0.06
31688 H 75.57400238141366 98.58168957800581 82.82267078209875 H 0.0 **** 0.06
31689 H 75.0813558272234 100.27219977256297 83.08738423675015 H 0.0 **** 0.06
31690 H 74.42382155471893 99.35941682526877 81.70831808926658 H 0.0 **** 0.06
31691 C 159.67695590694146 100.30155646000821 120.7859914893437 C 0.0 **** -0.24
31692 H 159.23961802562997 99.89474641557547 121.69761660002442 H 0.0 **** 0.06
31693 H 160.03709938544245 101.31335687948587 120.976027832417 H 0.0 **** 0.06
31694 H 158.92116881026996 100.32706837538348 120.00142462007136 H 0.0 **** 0.06
31695 H 160.5092161121864 99.67312044672855 120.46935556929336 H 0.0 **** 0.06
31696 C 12.282391221536685 4.943433897660896 80.58017964068347 C 0.0 **** -0.24
31697 H 12.0577530640169 5.9361087594053 80.1900469694861 H 0.0 **** 0.06
31698 H 11.48221174079135 4.255242902299926 80.30779546880541 H 0.0 **** 0.06
31699 H 12.366822306470148 4.990625820290376 81.66641742860764 H 0.0 **** 0.06
31700 H 13.224332147177073 4.591639822358729 80.15806184109891 H 0.0 **** 0.06
31701 C 85.91430882335204 8.8361710533095 119.6474299307011 C 0.0 **** -0.24
31702 H 86.04777324317686 9.915105607943303 119.71911417660871 H 0.0 **** 0.06
31703 H 85.04975765198026 8.536785745941302 120.24234334946411 H 0.0 **** 0.06
31704 H 86.80572865410346 8.334945596925081 120.02400648340586 H 0.0 **** 0.06
31705 H 85.75254125946662 8.557310985118733 118.60616747375502 H 0.0 **** 0.06
31706 C 154.61877321982564 94.40388097966235 77.8702760301677 C 0.0 **** -0.24
31707 H 155.41920874293334 93.93576106032157 77.29742186331043 H 0.0 **** 0.06
31708 H 154.78841580098558 95.48009332234932 77.91976957596762 H 0.0 **** 0.06
31709 H 154.6046624684828 93.99110567946997 78.8791465033396 H 0.0 **** 0.06
31710 H 153.66280586690078 94.20856385650853 77.38476617805333 H 0.0 **** 0.06
31711 C 107.81625297901104 57.278265605940646 118.30874556411254 C 0.0 **** -0.24
31712 H 108.35520593587938 58.22063269274324 118.40305436515621 H 0.0 **** 0.06
31713 H 108.0307245371365 56.6497250742961 119.17258635554401 H 0.0 **** 0.06
31714 H 108.13245753749749 56.76835841955864 117.39893980831465 H 0.0 **** 0.06
31715 H 106.74453040164138 57.47616801651742 118.26094815667227 H 0.0 **** 0.06
31716 C 50.99755473940692 25.920729584120238 132.6625114123312 C 0.0 **** -0.24
31717 H 51.90365683319358 26.479602717388616 132.42980132416918 H 0.0 **** 0.06
31718 H 50.13262010076595 26.444811647666768 132.25421950090464 H 0.0 **** 0.06
31719 H 50.892003360895856 25.833385349292854 133.74434416507853 H 0.0 **** 0.06
31720 H 51.06081975866991 24.925604208279196 132.22239642140107 H 0.0 **** 0.06
31721 C 140.94336195699165 148.23084808519152 87.17353153181534 C 0.0 **** -0.24
31722 H 140.70084164862348 149.2580122745089 87.44833118500856 H 0.0 **** 0.06
31723 H 141.9122105557513 148.20806551107611 86.6733120115727 H 0.0 **** 0.06
31724 H 140.1773271946744 147.8442982057536 86.50142059249367 H 0.0 **** 0.06
31725 H 140.9838218212466 147.61482297136908 88.07214338250458 H 0.0 **** 0.06
31726 C 164.57805094984252 125.39459326656683 64.45537953049453 C 0.0 **** -0.24
31727 H 165.6315048603482 125.64837404068183 64.57468322091407 H 0.0 **** 0.06
31728 H 164.35763930120748 125.2519461746665 63.39771385415078 H 0.0 **** 0.06
31729 H 163.96311537902747 126.20329262439859 64.84993468424933 H 0.0 **** 0.06
31730 H 164.36230272102128 124.47490840610882 64.99983123962207 H 0.0 **** 0.06
31731 C 56.07174941634675 1.0619186530369191 25.548494213382618 C 0.0 **** -0.24
31732 H 56.041470466838334 1.9977818895494437 26.107785205246145 H 0.0 **** 0.06
31733 H 55.739649965201835 1.240722900831166 24.525525886438054 H 0.0 **** 0.06
31734 H 55.41393803032692 0.3340004789904185 26.022222475698392 H 0.0 **** 0.06
31735 H 57.09193923896153 0.6792429977618397 25.537806254042763 H 0.0 **** 0.06
31736 C 91.6718281948867 161.5738409304505 161.09658855525015 C 0.0 **** -0.24
31737 H 91.03572946523451 160.82115461956775 160.62975674811628 H 0.0 **** 0.06
31738 H 91.05978801350165 162.23705085612636 161.70815997860592 H 0.0 **** 0.06
31739 H 92.17514583832252 162.154263616957 160.32269769188014 H 0.0 **** 0.06
31740 H 92.41514178515251 161.08353087437274 161.72391709324404 H 0.0 **** 0.06
31741 C 136.12358370185453 151.95018757619488 105.37738076368439 C 0.0 **** -0.24
31742 H 135.93343404451952 151.22852248485822 106.17207428935879 H 0.0 **** 0.06
31743 H 135.58114758022845 151.6525930849027 104.48017245521882 H 0.0 **** 0.06
31744 H 137.19214673752813 151.98170426520943 105.16360065739025 H 0.0 **** 0.06
31745 H 135.7875663969728 152.9366505087487 105.69550874728111 H 0.0 **** 0.06
31746 C 99.099404438806 128.21842988247485 115.82938900396232 C 0.0 **** -0.24
31747 H 98.48623167277358 128.5948935619612 116.64731895407573 H 0.0 **** 0.06
31748 H 99.4717340983733 127.22542747832725 116.08224281426882 H 0.0 **** 0.06
31749 H 99.94106948957099 128.89110720113965 115.66650151693273 H 0.0 **** 0.06
31750 H 98.49904066265455 128.16141910692966 114.92166422178997 H 0.0 **** 0.06
31751 C 76.4861807493909 167.9917897487362 93.223491285396 C 0.0 **** -0.24
31752 H 75.98513275565386 168.3869182104358 94.10789595889827 H 0.0 **** 0.06
31753 H 77.06848689049234 167.1121921641389 93.49955080211052 H 0.0 **** 0.06
31754 H 77.15070218025107 168.7531270593073 92.81262511930936 H 0.0 **** 0.06
31755 H 75.74208164282803 167.71712800894304 92.47694417548743 H 0.0 **** 0.06
31756 C 19.990343105375132 119.52457794071734 81.179586092759 C 0.0 **** -0.24
31757 H 19.15969024025584 119.01197590053215 81.66429026993723 H 0.0 **** 0.06
31758 H 20.615948445055494 119.99922270502032 81.93616029192475 H 0.0 **** 0.06
31759 H 19.60256561064388 120.28308114381974 80.4994201595672 H 0.0 **** 0.06
31760 H 20.583633359524704 118.80186669854706 80.61816525348144 H 0.0 **** 0.06
31761 C 20.776694326444556 77.20372214592449 68.4341291777871 C 0.0 **** -0.24
31762 H 21.430022060224815 78.07689370693252 68.46587099515969 H 0.0 **** 0.06
31763 H 20.29602677630058 77.07432588458056 69.40406449086893 H 0.0 **** 0.06
31764 H 21.36673424758166 76.31838569831115 68.19917508653299 H 0.0 **** 0.06
31765 H 20.01642478667702 77.34774215483075 67.66719005589758 H 0.0 **** 0.06
31766 C 58.9115105173895 132.19368377400505 132.0150894251621 C 0.0 **** -0.24
31767 H 59.87553929637386 131.69119037727268 132.08596996034902 H 0.0 **** 0.06
31768 H 58.12599521894788 131.52263685316038 132.36344548923074 H 0.0 **** 0.06
31769 H 58.72100340882133 132.46972671746508 130.97793633997543 H 0.0 **** 0.06
31770 H 58.92369207387458 133.0908585852672 132.6339336308949 H 0.0 **** 0.06
31771 C 155.51505213447774 144.42016571020014 1.9406420125502564 C 0.0 **** -0.24
31772 H 156.48042280104747 143.92969321476383 1.8101834672249026 H 0.0 **** 0.06
31773 H 154.7251084916086 143.77476833479946 1.5572121767480027 H 0.0 **** 0.06
31774 H 155.51068417446638 145.3631941484527 1.3953334476561707 H 0.0 **** 0.06
31775 H 155.34651173539078 144.61167089473705 3.0007722437177478 H 0.0 **** 0.06
31776 C 170.39879577593175 123.66644904719675 102.54043659775732 C 0.0 **** -0.24
31777 H 171.2715964101811 123.27042191736291 103.05961744497279 H 0.0 **** 0.06
31778 H 170.22275941794265 124.69441234900208 102.85746473320734 H 0.0 **** 0.06
31779 H 169.52699928719383 123.05684343773899 102.77989868861036 H 0.0 **** 0.06
31780 H 170.57374069128946 123.64170841494553 101.46519460542495 H 0.0 **** 0.06
31781 C 130.02977950508009 147.07696132571806 141.54775815289975 C 0.0 **** -0.24
31782 H 130.78183950555072 146.5201880942849 140.98912455457972 H 0.0 **** 0.06
31783 H 129.7278193303186 146.49974795535866 142.42356980793417 H 0.0 **** 0.06
31784 H 129.16162254188788 147.25469958732424 140.9129378730441 H 0.0 **** 0.06
31785 H 130.44752901949673 148.03132217106327 141.86828881272157 H 0.0 **** 0.06
31786 C 54.682683766002114 67.35388166005082 110.58391319004426 C 0.0 **** -0.24
31787 H 54.418511419481746 66.4589479524751 111.14598949632142 H 0.0 **** 0.06
31788 H 54.7285131441118 67.11491603153914 109.5209817212432 H 0.0 **** 0.06
31789 H 55.65556456656513 67.71740522717973 110.91643503923973 H 0.0 **** 0.06
31790 H 53.9306302461445 68.12411533556727 110.75057071900036 H 0.0 **** 0.06
31791 C 62.91561656395784 32.9049949321452 2.207338459913501 C 0.0 **** -0.24
31792 H 61.85369451333783 32.97678931871974 1.9722782356592106 H 0.0 **** 0.06
31793 H 63.081189846804165 32.069941533969086 2.8893168637379603 H 0.0 **** 0.06
31794 H 63.247180341845294 33.830035475036425 2.6789576272612123 H 0.0 **** 0.06
31795 H 63.481352718439226 32.74227666675648 1.289267879537391 H 0.0 **** 0.06
31796 C 104.56506002159591 15.169367897865072 119.48734654921697 C 0.0 **** -0.24
31797 H 105.12301709873151 14.335605483642212 119.91374932489268 H 0.0 **** 0.06
31798 H 103.88902846618271 15.576862000398194 120.23813616014107 H 0.0 **** 0.06
31799 H 103.98890971389423 14.819918992205288 118.62998985633806 H 0.0 **** 0.06
31800 H 105.26080622204174 15.944914519852176 119.16493084645933 H 0.0 **** 0.06
31801 C 168.5248187651755 161.97931830002562 145.31107829734367 C 0.0 **** -0.24
31802 H 169.47551279708284 162.39928080215566 144.98416621378362 H 0.0 **** 0.06
31803 H 168.64164779215054 161.54576795909816 146.3038523101846 H 0.0 **** 0.06
31804 H 168.20895843640832 161.20598510495475 144.61019440282007 H 0.0 **** 0.06
31805 H 167.7722817601678 162.76821512785926 145.34401888491627 H 0.0 **** 0.06
31806 C 99.62569046147473 124.84287849389517 153.26156262169036 C 0.0 **** -0.24
31807 H 100.16321579469374 124.10748298997422 152.66196093192286 H 0.0 **** 0.06
31808 H 100.33116371802322 125.57588543322316 153.65485836293743 H 0.0 **** 0.06
31809 H 99.12330363819112 124.3410289514737 154.0881735855806 H 0.0 **** 0.06
31810 H 98.88646133274125 125.34686218234094 152.63925167720032 H 0.0 **** 0.06
31811 C 84.34137571070329 103.57046881811243 158.32887539148942 C 0.0 **** -0.24
31812 H 84.85462106813367 104.50109460890147 158.5718260799031 H 0.0 **** 0.06
31813 H 85.04113258444409 102.73844945097264 158.40943768948304 H 0.0 **** 0.06
31814 H 83.95425701000357 103.62293353237263 157.31217843584733 H 0.0 **** 0.06
31815 H 83.51551312244135 103.41964286110982 159.02449649332993 H 0.0 **** 0.06
31816 C 163.31399604228727 64.67761857810271 171.27370796621267 C 0.0 **** -0.24
31817 H 163.94678597159773 64.69137135767639 170.38677790818963 H 0.0 **** 0.06
31818 H 163.72369730343388 63.97779979390174 172.00228791382733 H 0.0 **** 0.06
31819 H 162.30746052387832 64.3661955996821 170.99636317461784 H 0.0 **** 0.06
31820 H 163.27800795126194 65.67601888879398 171.70981330562682 H 0.0 **** 0.06
31821 C 106.90093350389725 1.9916523332083216 55.17729961582987 C 0.0 **** -0.24
31822 H 106.58371211042896 3.0341337894290064 55.14874810019788 H 0.0 **** 0.06
31823 H 106.90303664692124 1.5854726600116464 54.16593824247819 H 0.0 **** 0.06
31824 H 106.21019467025974 1.4198386750078953 55.79758278477827 H 0.0 **** 0.06
31825 H 107.90501761222555 1.928756398501946 55.59749648240701 H 0.0 **** 0.06
31826 C 112.1657461214096 139.98644210522758 84.73997528947105 C 0.0 **** -0.24
31827 H 112.24000985678467 139.11516225373867 85.39117074375713 H 0.0 **** 0.06
31828 H 112.5238630624522 139.7261805780173 83.74350983495383 H 0.0 **** 0.06
31829 H 112.77285300411847 140.79536460595565 85.14517743463803 H 0.0 **** 0.06
31830 H 111.12492495020234 140.3066200795477 84.68055665367743 H 0.0 **** 0.06
31831 C 63.55966466359605 40.47348956308282 21.34244953639933 C 0.0 **** -0.24
31832 H 64.55177583534004 40.210666560514724 20.975306950085894 H 0.0 **** 0.06
31833 H 63.052521812724976 39.574208079530536 21.693399894876336 H 0.0 **** 0.06
31834 H 62.98160318702155 40.924761099102795 20.53508273122071 H 0.0 **** 0.06
31835 H 63.65243117653395 41.18303248283509 22.163952044725107 H 0.0 **** 0.06
31836 C 152.78363441127584 135.4770755993603 82.83900709234008 C 0.0 **** -0.24
31837 H 153.39411877480262 134.58272627418467 82.71941914741787 H 0.0 **** 0.06
31838 H 152.38332704451182 135.51068235874618 83.85288421355621 H 0.0 **** 0.06
31839 H 151.96086232660468 135.45289805294462 82.12399118548832 H 0.0 **** 0.06
31840 H 153.39542570598144 136.36152741440262 82.65936688668246 H 0.0 **** 0.06
31841 C 70.39445836739199 127.0459203063904 98.01965125142345 C 0.0 **** -0.24
31842 H 69.73017895648307 127.6495415393286 98.63824680712884 H 0.0 **** 0.06
31843 H 71.00743115638399 127.701657774333 97.40024027777702 H 0.0 **** 0.06
31844 H 69.80188434560105 126.39185214289844 97.38032501261938 H 0.0 **** 0.06
31845 H 71.03879942740957 126.44302185653453 98.65953580576303 H 0.0 **** 0.06
31846 C 29.76157307923515 168.61382852249432 52.72920486727388 C 0.0 **** -0.24
31847 H 30.84940765708346 168.55088858852204 52.75313551332002 H 0.0 **** 0.06
31848 H 29.38254555448819 168.7387867196466 53.74338767240563 H 0.0 **** 0.06
31849 H 29.35422891406347 167.6976281927447 52.299564409099304 H 0.0 **** 0.06
31850 H 29.460354304883765 169.4656474400658 52.120135130636754 H 0.0 **** 0.06
31851 C 77.68714363489005 128.91904236566407 152.53626544909594 C 0.0 **** -0.24
31852 H 78.19980703302167 128.02296377829356 152.88486058396276 H 0.0 **** 0.06
31853 H 76.61279664862228 128.7335983161878 152.50463817020065 H 0.0 **** 0.06
31854 H 78.04048829247394 129.17555334576392 151.53740767020187 H 0.0 **** 0.06
31855 H 77.89313027334195 129.74386458152625 153.21749886488493 H 0.0 **** 0.06
31856 C 121.79104277868436 171.64596780384085 12.210933219266536 C 0.0 **** -0.24
31857 H 120.83254555978408 171.14596479574607 12.06674827703128 H 0.0 **** 0.06
31858 H 121.99126336224532 172.29819736477123 11.361520203220152 H 0.0 **** 0.06
31859 H 122.58103441513111 170.9000755792348 12.29229143673578 H 0.0 **** 0.06
31860 H 121.7565614745159 172.24000042576637 13.125225580390065 H 0.0 **** 0.06
31861 C 158.53103116675857 163.72829671355808 150.73333001835056 C 0.0 **** -0.24
31862 H 158.22740050272984 164.17043063069337 149.78463818604533 H 0.0 **** 0.06
31863 H 159.3948874217764 164.26561423804475 151.12431905395016 H 0.0 **** 0.06
31864 H 158.7930151085344 162.68126237168914 150.57989698359975 H 0.0 **** 0.06
31865 H 157.70832596563213 163.79602235806212 151.4461193372571 H 0.0 **** 0.06
31866 C 99.8765912792905 125.14788891768052 139.63111247174936 C 0.0 **** -0.24
31867 H 100.32762392521545 124.58526048586586 140.4485272907483 H 0.0 **** 0.06
31868 H 99.59322547806994 126.13861047361891 139.9858825306838 H 0.0 **** 0.06
31869 H 98.9909103288764 124.62205350678681 139.2750105907113 H 0.0 **** 0.06
31870 H 100.5941229127647 125.24438650416499 138.816823376022 H 0.0 **** 0.06
31871 C 143.6236407004579 107.38609119455387 154.30689290810963 C 0.0 **** -0.24
31872 H 143.96062156395843 107.7781430670037 153.34679216415387 H 0.0 **** 0.06
31873 H 144.2272957351915 107.81644862473266 155.10658053113028 H 0.0 **** 0.06
31874 H 143.73025689456276 106.30170048314446 154.3138882853896 H 0.0 **** 0.06
31875 H 142.5764017130473 107.65004429024458 154.459255939174 H 0.0 **** 0.06
31876 C 155.61005790244974 2.051072202659469 136.6201853596408 C 0.0 **** -0.24
31877 H 156.6810152984952 1.935706164165616 136.78641746292382 H 0.0 **** 0.06
31878 H 155.06296056348123 1.4789869641577695 137.37056806894105 H 0.0 **** 0.06
31879 H 155.35521911035931 1.6858931484499493 135.626052274264 H 0.0 **** 0.06
31880 H 155.34246564803294 3.1047551003792293 136.70012236844929 H 0.0 **** 0.06
31881 C 115.14757735075335 136.9280833061823 74.3901938203303 C 0.0 **** -0.24
31882 H 114.31736748340617 136.96044176929115 73.68365172675101 H 0.0 **** 0.06
31883 H 115.73956896450366 136.03018622669748 74.21227261515071 H 0.0 **** 0.06
31884 H 114.75819518496564 136.91292104259452 75.40790439079854 H 0.0 **** 0.06
31885 H 115.77394095069062 137.80990948950554 74.2531776701615 H 0.0 **** 0.06
31886 C 153.8981100762931 103.5851442697332 128.02243065691394 C 0.0 **** -0.24
31887 H 153.4744294004964 102.846304603753 127.34217054556945 H 0.0 **** 0.06
31888 H 153.98347456076965 104.54360403534105 127.50999531538983 H 0.0 **** 0.06
31889 H 154.88517857146803 103.25604692806914 128.34498277668416 H 0.0 **** 0.06
31890 H 153.2488559066463 103.6935721434441 128.89066425272583 H 0.0 **** 0.06
31891 C 122.66679985345951 151.335802392829 11.196371529650719 C 0.0 **** -0.24
31892 H 123.36577605085543 151.47781785360158 12.021447955244923 H 0.0 **** 0.06
31893 H 121.65943377125228 151.20624350500918 11.591856361986572 H 0.0 **** 0.06
31894 H 122.95152950188952 150.44988614397698 10.628282956058456 H 0.0 **** 0.06
31895 H 122.69242731249813 152.20906524482047 10.544943562990653 H 0.0 **** 0.06
31896 C 130.71095722077905 134.08861348257457 163.45662203038202 C 0.0 **** -0.24
31897 H 130.86329205929854 135.1554787617722 163.2956818679713 H 0.0 **** 0.06
31898 H 129.81464900002237 133.76555120509516 162.92623957444235 H 0.0 **** 0.06
31899 H 130.59239698238608 133.89494784703072 164.52216754527797 H 0.0 **** 0.06
31900 H 131.57401426918116 133.53757478929364 163.08144326319788 H 0.0 **** 0.06
31901 C 74.31601325410944 151.75915238682018 22.240354920361284 C 0.0 **** -0.24
31902 H 74.1774689944805 152.0406337558273 21.197109563167714 H 0.0 **** 0.06
31903 H 73.54288297064865 152.22821615570763 22.848877663649517 H 0.0 **** 0.06
31904 H 75.29665131237239 152.09254194405827 22.57985246908936 H 0.0 **** 0.06
31905 H 74.24784085961542 150.6751288898983 22.336748873119262 H 0.0 **** 0.06
31906 C 162.91616457785818 78.91786630234338 39.69236626254275 C 0.0 **** -0.24
31907 H 163.3555330908073 79.50579060996523 38.887190832738014 H 0.0 **** 0.06
31908 H 162.0007367920625 79.40036141402152 40.03614910996413 H 0.0 **** 0.06
31909 H 163.6233286111456 78.84972465690294 40.51984373573964 H 0.0 **** 0.06
31910 H 162.68572842644141 77.91750241789669 39.327656201492545 H 0.0 **** 0.06
31911 C 160.22029265381337 83.46563241345606 0.9004724575557077 C 0.0 **** -0.24
31912 H 159.7516509097674 84.44914840875913 0.8624804153326977 H 0.0 **** 0.06
31913 H 159.5323743807575 82.72051991965839 0.5002887256368922 H 0.0 **** 0.06
31914 H 160.46433446307492 83.21916663342829 1.9331056734585559 H 0.0 **** 0.06
31915 H 161.1330721873887 83.47549735973058 0.3036312479320884 H 0.0 **** 0.06
31916 C 41.91029794460641 152.64371967357522 162.6412086591255 C 0.0 **** -0.24
31917 H 42.31829709218283 153.49023723386534 162.08726105213356 H 0.0 **** 0.06
31918 H 41.65631810581394 151.84385092156555 161.9451257428676 H 0.0 **** 0.06
31919 H 41.015181513423244 152.95850252442784 163.17617171569486 H 0.0 **** 0.06
31920 H 42.65248481337056 152.28396949100716 163.35363313570554 H 0.0 **** 0.06
31921 C 108.78379374548797 123.25386681818406 83.44251411510179 C 0.0 **** -0.24
31922 H 108.85462943988063 123.97827332215627 84.25480270182169 H 0.0 **** 0.06
31923 H 108.91049784260593 122.24770361576967 83.84273390550842 H 0.0 **** 0.06
31924 H 109.56397623877771 123.45465816404703 82.70782893348189 H 0.0 **** 0.06
31925 H 107.80659762339872 123.33649776530618 82.96713001758603 H 0.0 **** 0.06
31926 C 25.244909823170474 79.68002299092034 166.85395386949412 C 0.0 **** -0.24
31927 H 25.434850928578385 78.6069961212747 166.89332294338487 H 0.0 **** 0.06
31928 H 24.371791154213923 79.87109539396447 166.22985746796587 H 0.0 **** 0.06
31929 H 26.112253590291715 80.18601545066339 166.42936274972365 H 0.0 **** 0.06
31930 H 25.06219923152497 80.05446977502403 167.86113092826187 H 0.0 **** 0.06
31931 C 31.914417695568048 101.51080555017151 39.05858625165365 C 0.0 **** -0.24
31932 H 31.180571799355477 101.2765664943274 39.83060211079322 H 0.0 **** 0.06
31933 H 32.89915312142945 101.1690294812818 39.37939535684808 H 0.0 **** 0.06
31934 H 31.9378099457944 102.58764917447527 38.89544594767008 H 0.0 **** 0.06
31935 H 31.63886696765654 101.00759335696756 38.131491604157986 H 0.0 **** 0.06
31936 C 64.11071637677395 76.34156079317678 52.43862415969784 C 0.0 **** -0.24
31937 H 64.63139755857573 75.58094319859853 53.02044558288347 H 0.0 **** 0.06
31938 H 63.63408376380073 75.87458939605347 51.575457134801695 H 0.0 **** 0.06
31939 H 64.82554255409995 77.09046480744186 52.09744898134383 H 0.0 **** 0.06
31940 H 63.35236168198149 76.81810940790626 53.058661835210614 H 0.0 **** 0.06
31941 C 27.46464013720066 153.0306234067476 113.94781824606639 C 0.0 **** -0.24
31942 H 26.81095825102434 153.56462795342262 113.25765207763834 H 0.0 **** 0.06
31943 H 27.59617388209933 153.62304525980446 114.85355629960077 H 0.0 **** 0.06
31944 H 28.433586456441148 152.866310672248 113.47594585614581 H 0.0 **** 0.06
31945 H 27.016417210029132 152.07098727852085 114.20170373719054 H 0.0 **** 0.06
31946 C 74.25869858542052 33.88587452181309 83.40035726431353 C 0.0 **** -0.24
31947 H 74.5278297566959 34.54694438843234 84.22398292004698 H 0.0 **** 0.06
31948 H 75.10779989106683 33.78367834964229 82.7244799798564 H 0.0 **** 0.06
31949 H 73.41177031588873 34.30691989972922 82.85916278630629 H 0.0 **** 0.06
31950 H 73.98752809311236 32.90637573301021 83.7947008730979 H 0.0 **** 0.06
31951 C 157.6958576095855 44.633719737440146 37.58219698994128 C 0.0 **** -0.24
31952 H 157.42450216705473 43.6024516227435 37.80818258160906 H 0.0 **** 0.06
31953 H 158.19062533173545 45.07769395001519 38.4461072797302 H 0.0 **** 0.06
31954 H 156.79564188094884 45.20221670651772 37.34630283065226 H 0.0 **** 0.06
31955 H 158.37155504252402 44.65156870115078 36.726824795481605 H 0.0 **** 0.06
31956 C 103.04239482953616 35.41192748878393 142.99758341151204 C 0.0 **** -0.24
31957 H 103.14530127497079 34.83842892250368 142.07581941138065 H 0.0 **** 0.06
31958 H 102.48597169164876 34.82682572432688 143.7300589484209 H 0.0 **** 0.06
31959 H 102.50866191863591 36.339626118655104 142.79041288824632 H 0.0 **** 0.06
31960 H 104.03188983423294 35.64295897427456 143.39307209065322 H 0.0 **** 0.06
31961 C 0.4275522732839363 156.99589034491618 58.64394258050754 C 0.0 **** -0.24
31962 H 1.3041966627748707 156.95772021243636 57.99737561736359 H 0.0 **** 0.06
31963 H -0.35501824023202744 157.58044491513115 58.16011871407346 H 0.0 **** 0.06
31964 H 0.6961606683528885 157.46079862647335 59.59278240808388 H 0.0 **** 0.06
31965 H 0.0657796228723555 155.98419763918787 58.82560596172635 H 0.0 **** 0.06
31966 C 125.70606027185534 125.64220134274618 118.19190417740671 C 0.0 **** -0.24
31967 H 126.6147009875321 125.90607572159604 118.73411776923257 H 0.0 **** 0.06
31968 H 125.11431123478246 124.94881089584467 118.789255783626 H 0.0 **** 0.06
31969 H 125.97281857018214 125.17154361759259 117.24528465531137 H 0.0 **** 0.06
31970 H 125.12514159983397 126.54338004602167 117.99823022909666 H 0.0 **** 0.06
31971 C 153.06166631847228 89.84476820087478 25.045246411815867 C 0.0 **** -0.24
31972 H 153.59905432191687 90.72111126247636 24.68137255057485 H 0.0 **** 0.06
31973 H 153.72715767537625 88.98159644420602 25.03783328098916 H 0.0 **** 0.06
31974 H 152.20552653533755 89.65054731440864 24.400236283351234 H 0.0 **** 0.06
31975 H 152.7164230638782 90.02789994785616 26.063101048656875 H 0.0 **** 0.06
31976 C 70.11573919677049 87.93721725282575 78.8224277763019 C 0.0 **** -0.24
31977 H 69.84105075741499 88.49386226271264 79.71876744231 H 0.0 **** 0.06
31978 H 70.74015834122547 88.56188303240998 78.18378658036359 H 0.0 **** 0.06
31979 H 69.21315151085057 87.65238529182295 78.28187583143574 H 0.0 **** 0.06
31980 H 70.66744791881513 87.04094237593478 79.10718914134591 H 0.0 **** 0.06
31981 C 136.74156981987363 36.264630472889905 100.5159584036702 C 0.0 **** -0.24
31982 H 136.1260099604815 35.585172678532146 99.92709226530081 H 0.0 **** 0.06
31983 H 137.79132440500797 35.99210223168629 100.4050175786735 H 0.0 **** 0.06
31984 H 136.4567318514413 36.1954443290106 101.56599831026693 H 0.0 **** 0.06
31985 H 136.5922130625638 37.2858026523305 100.16572546043955 H 0.0 **** 0.06
31986 C 72.93794417850825 136.51344035790885 29.677514647717203 C 0.0 **** -0.24
31987 H 73.29867809242506 135.7039465730498 29.043302516358324 H 0.0 **** 0.06
31988 H 73.69659913675406 136.75461764713995 30.423741438751733 H 0.0 **** 0.06
31989 H 72.02188284858147 136.20141467761619 30.178015166887747 H 0.0 **** 0.06
31990 H 72.73763849600402 137.39254156716635 29.06557276875185 H 0.0 **** 0.06
31991 C 125.04186521880507 116.82971954357706 119.25250541602529 C 0.0 **** -0.24
31992 H 124.76228743117946 117.69314451563162 119.85687102248306 H 0.0 **** 0.06
31993 H 125.43744427914248 117.16958955330429 118.2945154295196 H 0.0 **** 0.06
31994 H 124.16391494720625 116.20649759945843 119.0821266685777 H 0.0 **** 0.06
31995 H 125.8034729411558 116.25132109592201 119.77622683014476 H 0.0 **** 0.06
31996 C 110.36039094238262 134.18540656152192 77.59826301900483 C 0.0 **** -0.24
31997 H 109.99566222049631 134.44613632826326 78.59120616984637 H 0.0 **** 0.06
31998 H 111.44959406796582 134.13868164273453 77.61221063682115 H 0.0 **** 0.06
31999 H 110.03885001809542 134.94318689494742 76.88327028775637 H 0.0 **** 0.06
32000 H 109.95817494546668 133.21632627568368 77.30528377376709 H 0.0 **** 0.06
32001 C 132.6434497331882 147.9582553655316 9.713564101159648 C 0.0 **** -0.24
32002 H 133.44895866390866 148.65321136283237 9.948671908177346 H 0.0 **** 0.06
32003 H 131.73430098488305 148.26799373420417 10.22878238197319 H 0.0 **** 0.06
32004 H 132.92253581408445 146.95558440386264 10.03911612214813 H 0.0 **** 0.06
32005 H 132.46858636587896 147.9546045414931 8.637577267662493 H 0.0 **** 0.06
32006 C 146.70090216780017 108.03312135341716 15.608160127683306 C 0.0 **** -0.24
32007 H 147.02371951928376 108.56147168928129 16.504366589310052 H 0.0 **** 0.06
32008 H 147.18284449023713 108.47250811793512 14.73458181737351 H 0.0 **** 0.06
32009 H 145.61899892156595 108.11604134802525 15.506923709532515 H 0.0 **** 0.06
32010 H 146.97996085840327 106.98189832322836 15.686878626163974 H 0.0 **** 0.06
32011 C 17.68436713933778 36.03310613033827 94.5224147508049 C 0.0 **** -0.24
32012 H 17.995416498859782 35.05104130143681 94.8758975627585 H 0.0 **** 0.06
32013 H 16.730297343212044 35.94646846451042 94.00175560641924 H 0.0 **** 0.06
32014 H 18.436943937549074 36.428172494761895 93.83879792655091 H 0.0 **** 0.06
32015 H 17.574944176506904 36.7064221581835 95.37151090337272 H 0.0 **** 0.06
32016 C 121.23135989562275 41.75133964263256 158.70451846760108 C 0.0 **** -0.24
32017 H 122.31224442635602 41.76982148991539 158.84832831415017 H 0.0 **** 0.06
32018 H 120.83271178657088 42.759999962475035 158.81312431268216 H 0.0 **** 0.06
32019 H 120.77738761035351 41.09844189849687 159.44942105251403 H 0.0 **** 0.06
32020 H 121.00453349754969 41.3758642995023 157.70600944182502 H 0.0 **** 0.06
32021 C 36.07768987368814 100.5171149128742 75.20973168947437 C 0.0 **** -0.24
32022 H 36.92825307065716 99.8999492953754 74.92083027803226 H 0.0 **** 0.06
32023 H 35.15529344062763 100.04931560852299 74.86520328267547 H 0.0 **** 0.06
32024 H 36.1755177020124 101.50428005436544 74.75769309280818 H 0.0 **** 0.06
32025 H 36.05183896362631 100.61589586344661 76.29507092087816 H 0.0 **** 0.06
32026 C 54.00941353213847 99.48677693739339 26.763356616442024 C 0.0 **** -0.24
32027 H 54.77373434402156 98.70973573843699 26.745753722363787 H 0.0 **** 0.06
32028 H 53.37290909765437 99.3884924421499 25.88307740379713 H 0.0 **** 0.06
32029 H 54.487177972651 100.46627009105046 26.75982469237121 H 0.0 **** 0.06
32030 H 53.4045476392148 99.38001192173496 27.66345086110576 H 0.0 **** 0.06
32031 C 12.090475752491187 90.44551985680555 33.981934444948706 C 0.0 **** -0.24
32032 H 12.691004855770984 89.61174703177679 34.34423380821829 H 0.0 **** 0.06
32033 H 11.323402483994471 90.07306936790754 33.302683070060084 H 0.0 **** 0.06
32034 H 12.731392046502577 91.15244080933496 33.45422592628012 H 0.0 **** 0.06
32035 H 11.616479116798473 90.94615851945252 34.82555893098203 H 0.0 **** 0.06
32036 C 20.78357507935641 143.30295884983573 110.89104687998895 C 0.0 **** -0.24
32037 H 20.865501085262963 142.2836713984965 110.51778648969568 H 0.0 **** 0.06
32038 H 21.147199518153116 143.99836545812266 110.13380376633353 H 0.0 **** 0.06
32039 H 21.381568588708717 143.4071456418671 111.79666659819503 H 0.0 **** 0.06
32040 H 19.740740436585895 143.52473569786395 111.11797004934272 H 0.0 **** 0.06
32041 C 107.89179018238167 11.61824323102627 95.49110795183947 C 0.0 **** -0.24
32042 H 106.8199203584436 11.674174411160948 95.68352935231405 H 0.0 **** 0.06
32043 H 108.35532547968955 12.572907460899614 95.74317434864295 H 0.0 **** 0.06
32044 H 108.0602476511111 11.399983582646769 94.43663036196486 H 0.0 **** 0.06
32045 H 108.3297085498076 10.828752623386436 96.10083513143684 H 0.0 **** 0.06
32046 C 58.41798364355134 16.16686188980926 34.28493067584213 C 0.0 **** -0.24
32047 H 58.906517064988236 15.19330464490838 34.24399690612347 H 0.0 **** 0.06
32048 H 57.85545257706994 16.32982430801421 33.36585057952519 H 0.0 **** 0.06
32049 H 59.17177908020216 16.946683325006404 34.39397267311989 H 0.0 **** 0.06
32050 H 57.73937725932893 16.197088128947996 35.137971684597915 H 0.0 **** 0.06
32051 C 152.08063061363995 126.92985544472623 156.497855733491 C 0.0 **** -0.24
32052 H 152.7264566867025 127.49778723487486 155.82978067009833 H 0.0 **** 0.06
32053 H 152.11902872622036 127.36343206794828 157.49729361969287 H 0.0 **** 0.06
32054 H 152.41803375565615 125.89379813017348 156.5370802801213 H 0.0 **** 0.06
32055 H 151.05540650095224 126.96343844080894 156.12690703893202 H 0.0 **** 0.06
32056 C 51.674094861523045 25.326848313228382 47.86032582413627 C 0.0 **** -0.24
32057 H 51.057787920076265 25.99777169130128 47.26309662251242 H 0.0 **** 0.06
32058 H 52.630240062714336 25.80553471124591 48.07512785039059 H 0.0 **** 0.06
32059 H 51.84679256383836 24.403332039835703 47.30742855539337 H 0.0 **** 0.06
32060 H 51.163338645090775 25.098584526831424 48.79600040767956 H 0.0 **** 0.06
32061 C 50.801057997333146 38.887821387089645 109.63626790705888 C 0.0 **** -0.24
32062 H 51.06144444336093 38.86992710500101 108.57867590772054 H 0.0 **** 0.06
32063 H 51.08585833486967 37.941833837204854 110.09632713782224 H 0.0 **** 0.06
32064 H 49.72646958054429 39.0357144645705 109.74360642782631 H 0.0 **** 0.06
32065 H 51.33058711867568 39.70502958955092 110.12716695930374 H 0.0 **** 0.06
32066 C 13.544562828797325 47.42316174825055 43.869129879809236 C 0.0 **** -0.24
32067 H 12.992527187873634 47.1954755107501 42.957433217382786 H 0.0 **** 0.06
32068 H 14.614142258770471 47.41721187291054 43.65650189734632 H 0.0 **** 0.06
32069 H 13.320019217307959 46.67174281250348 44.62642767266482 H 0.0 **** 0.06
32070 H 13.251929795152307 48.406928932004746 44.235702127202444 H 0.0 **** 0.06
32071 C 103.38939414590797 19.929135150068674 80.75569636527925 C 0.0 **** -0.24
32072 H 102.7927743898451 19.614720383217872 81.61162532681203 H 0.0 **** 0.06
32073 H 103.58750122066652 19.0696014335594 80.11557016377093 H 0.0 **** 0.06
32074 H 104.33370193843734 20.346932663714682 81.10556810144958 H 0.0 **** 0.06
32075 H 102.84457831333549 20.685932740591397 80.19081114135315 H 0.0 **** 0.06
32076 C 4.1893873829041866 60.15383553706005 144.13401948208502 C 0.0 **** -0.24
32077 H 4.174424435651616 59.92057237240192 145.1988253802987 H 0.0 **** 0.06
32078 H 4.539983615064131 59.285099516043516 143.5774530684422 H 0.0 **** 0.06
32079 H 4.858701710048706 60.99496763828628 143.9559372552179 H 0.0 **** 0.06
32080 H 3.1828831259430785 60.41423853018796 143.8050290952403 H 0.0 **** 0.06
32081 C 31.590578593093056 53.350097296835116 9.74662579447191 C 0.0 **** -0.24
32082 H 31.36623188820127 52.506560072259376 9.094110139865037 H 0.0 **** 0.06
32083 H 32.64155701025079 53.3167161969473 10.034834523523514 H 0.0 **** 0.06
32084 H 30.966501432763053 53.29504937232062 10.638732635659366 H 0.0 **** 0.06
32085 H 31.38779280224493 54.28124241299794 9.218304057608492 H 0.0 **** 0.06
32086 C 69.57633417316487 169.66394876131113 150.49578793186208 C 0.0 **** -0.24
32087 H 70.50710167872359 169.57277884420108 149.935591455775 H 0.0 **** 0.06
32088 H 69.68113994625946 170.44489883641367 151.24852686259717 H 0.0 **** 0.06
32089 H 69.35313999214452 168.714756601264 150.98361659460923 H 0.0 **** 0.06
32090 H 68.76594156245153 169.9218139759578 149.81412780636458 H 0.0 **** 0.06
32091 C 170.56678108912445 81.42010602129514 86.66733655184652 C 0.0 **** -0.24
32092 H 169.50015524543392 81.64382030277581 86.64835195916334 H 0.0 **** 0.06
32093 H 170.7917465341162 80.79864233663918 87.5339227355189 H 0.0 **** 0.06
32094 H 171.13214070871823 82.34994422243007 86.7303334403577 H 0.0 **** 0.06
32095 H 170.842083919807 80.88800556903246 85.75667489754164 H 0.0 **** 0.06
32096 C 11.254596669128262 95.26206790376565 57.656734850523634 C 0.0 **** -0.24
32097 H 11.655111498734186 94.32270346321533 57.27631996094607 H 0.0 **** 0.06
32098 H 10.219229084221894 95.37145744331096 57.334450705910754 H 0.0 **** 0.06
32099 H 11.846616944498123 96.09181134670371 57.269963587258275 H 0.0 **** 0.06
32100 H 11.298811825300106 95.26152706381805 58.74550383065889 H 0.0 **** 0.06
32101 C 25.69108699412373 68.84553504033622 154.42537243550066 C 0.0 **** -0.24
32102 H 25.791582173377016 69.64126076887652 155.16444178813308 H 0.0 **** 0.06
32103 H 26.580098742364953 68.21429539699676 154.44890633203923 H 0.0 **** 0.06
32104 H 25.582416365856403 69.28343647375347 153.43331991475281 H 0.0 **** 0.06
32105 H 24.81110319409852 68.24511765857656 154.65544776260947 H 0.0 **** 0.06
32106 C 34.843823660404325 104.26999566584655 83.98857603658372 C 0.0 **** -0.24
32107 H 33.77312165779648 104.41154369897879 83.8425741487684 H 0.0 **** 0.06
32108 H 35.12704967483103 104.63336466043967 84.97606029637492 H 0.0 **** 0.06
32109 H 35.390318440016756 104.82457760908949 83.22568842215325 H 0.0 **** 0.06
32110 H 35.084212426988415 103.20957706358635 83.90908498296795 H 0.0 **** 0.06
32111 C 53.89015964701403 3.933032619789202 146.39961540429314 C 0.0 **** -0.24
32112 H 54.959348888693725 4.033517031312357 146.586571112107 H 0.0 **** 0.06
32113 H 53.49548775566906 4.879517516429047 146.03161867410236 H 0.0 **** 0.06
32114 H 53.383994757317595 3.663226653364802 147.325745519984 H 0.0 **** 0.06
32115 H 53.72446352217938 3.1544752101649465 145.65449973625712 H 0.0 **** 0.06
32116 C 126.27019351791768 60.6113588204156 143.23140424184993 C 0.0 **** -0.24
32117 H 125.41772941298697 60.784658669619375 143.88900543317186 H 0.0 **** 0.06
32118 H 126.72065355909112 59.64682280473869 143.46817680018393 H 0.0 **** 0.06
32119 H 127.00644027575743 61.40172825850925 143.3758169623086 H 0.0 **** 0.06
32120 H 125.93448633955893 60.61219981975 142.1945811340077 H 0.0 **** 0.06
32121 C 100.04864617043003 103.59554860307946 54.214872973818984 C 0.0 **** -0.24
32122 H 100.55945482543882 103.40598862303216 53.26995035126646 H 0.0 **** 0.06
32123 H 99.0931769367858 103.07072303457335 54.221644959261795 H 0.0 **** 0.06
32124 H 99.8762071451323 104.66603677437615 54.32625987726652 H 0.0 **** 0.06
32125 H 100.66590254405452 103.23944533609833 55.03919220539686 H 0.0 **** 0.06
32126 C 126.17745550507584 161.2325193555231 113.65963969328655 C 0.0 **** -0.24
32127 H 125.84041412631086 160.43199263742557 113.00136751695993 H 0.0 **** 0.06
32128 H 126.67140656293353 162.00391091109603 113.06929353231618 H 0.0 **** 0.06
32129 H 126.87834485946036 160.82990554229468 114.39148355552572 H 0.0 **** 0.06
32130 H 125.32018195043841 161.66342514521673 114.17652791011167 H 0.0 **** 0.06
32131 C 162.28726229284737 136.9024510302707 113.59943012712986 C 0.0 **** -0.24
32132 H 162.1009765065119 135.83053138729503 113.53843790496794 H 0.0 **** 0.06
32133 H 162.08968353446494 137.36164083363263 112.63092326704219 H 0.0 **** 0.06
32134 H 163.3274810199943 137.07475210249953 113.87899331386518 H 0.0 **** 0.06
32135 H 161.63167595357098 137.34227339524767 114.35161165409298 H 0.0 **** 0.06
32136 C 157.29425045234342 140.7295724456007 59.86448787604769 C 0.0 **** -0.24
32137 H 157.11972320871422 141.3989147694657 60.70632173940572 H 0.0 **** 0.06
32138 H 158.08963859259535 141.1343469653908 59.23736785092632 H 0.0 **** 0.06
32139 H 156.37983638668288 140.63822262856502 59.27838779080787 H 0.0 **** 0.06
32140 H 157.58757551164345 139.74772945887656 60.23556729386138 H 0.0 **** 0.06
32141 C 151.2761154871867 99.10752247518474 110.78986701198693 C 0.0 **** -0.24
32142 H 150.2988835884831 98.68434571021598 111.01761328761194 H 0.0 **** 0.06
32143 H 151.15761024180676 100.14187341325407 110.46465035631456 H 0.0 **** 0.06
32144 H 151.74678436643939 98.52830227156915 109.99495194133772 H 0.0 **** 0.06
32145 H 151.90289732829456 99.07645052709498 111.68111851636166 H 0.0 **** 0.06
32146 C 12.795438384619409 58.82996959384735 89.06506224029687 C 0.0 **** -0.24
32147 H 12.611218265778398 57.80343738355592 88.74978977697815 H 0.0 **** 0.06
32148 H 13.850366522892756 59.06954172085574 88.9232628484097 H 0.0 **** 0.06
32149 H 12.536549531405988 58.93861986522242 90.11813102071163 H 0.0 **** 0.06
32150 H 12.185152639459396 59.508804536837346 88.46845462613364 H 0.0 **** 0.06
32151 C 99.81420069234508 158.6955896443706 129.61581342594118 C 0.0 **** -0.24
32152 H 98.80531809631225 159.07215461693448 129.7853124568985 H 0.0 **** 0.06
32153 H 99.85326997232036 157.63544686788882 129.86508848466553 H 0.0 **** 0.06
32154 H 100.5164646866651 159.24343496016212 130.24505901358907 H 0.0 **** 0.06
32155 H 100.08094442779483 158.83451515426864 128.56818865360094 H 0.0 **** 0.06
32156 C 36.349344549436566 55.782721588542444 113.08638328871257 C 0.0 **** -0.24
32157 H 35.95121459380181 56.17029567306713 112.148651423346 H 0.0 **** 0.06
32158 H 36.40863143625177 54.69535170291914 113.03362916286136 H 0.0 **** 0.06
32159 H 35.69311509120776 56.072055961383 113.9072631255055 H 0.0 **** 0.06
32160 H 37.345124865313466 56.19382312991783 113.25494572572563 H 0.0 **** 0.06
32161 C 164.56607254082056 107.7411209959235 71.9357280233238 C 0.0 **** -0.24
32162 H 164.4973160052236 107.59228917292336 73.01379612897047 H 0.0 **** 0.06
32163 H 165.22180353580902 106.9840492419182 71.50569615757549 H 0.0 **** 0.06
32164 H 164.9716543162636 108.73173893708895 71.73126118050601 H 0.0 **** 0.06
32165 H 163.57394731102968 107.65664512189844 71.49348430077801 H 0.0 **** 0.06
32166 C 90.54199414686575 14.005268912965526 26.993506838128916 C 0.0 **** -0.24
32167 H 90.66741974568859 13.092653543163983 27.57744076604577 H 0.0 **** 0.06
32168 H 91.3652862546163 14.098568562152181 26.28554959714466 H 0.0 **** 0.06
32169 H 90.53728128402109 14.865759668626673 27.661827573928008 H 0.0 **** 0.06
32170 H 89.59847569322744 13.961305174119765 26.450202797089958 H 0.0 **** 0.06
32171 C 60.905716123250485 50.57650328781733 134.59740773328625 C 0.0 **** -0.24
32172 H 61.008653474238116 49.5112865520217 134.39325004729693 H 0.0 **** 0.06
32173 H 59.911680630909075 50.775159860802944 134.99987789555288 H 0.0 **** 0.06
32174 H 61.042643806840005 51.13886040687392 133.67454673343772 H 0.0 **** 0.06
32175 H 61.65917859191572 50.88087386838575 135.32407068881682 H 0.0 **** 0.06
32176 C 169.7248608967713 119.70935700640985 0.8689822282565274 C 0.0 **** -0.24
32177 H 169.84887070266302 120.08322033759026 1.884642567146443 H 0.0 **** 0.06
32178 H 169.32322500631338 120.50162513603934 0.23672039521650845 H 0.0 **** 0.06
32179 H 169.03594999401648 118.86395073613406 0.8739041858083283 H 0.0 **** 0.06
32180 H 170.69139788409242 119.38863181587578 0.4806617648549718 H 0.0 **** 0.06
32181 C 165.82729472260272 140.97348529399048 13.553525699421428 C 0.0 **** -0.24
32182 H 165.9543044161494 140.59007129679804 14.565428066785941 H 0.0 **** 0.06
32183 H 164.8549036325816 140.66725086851676 13.16775474294846 H 0.0 **** 0.06
32184 H 166.61421815494575 140.57528356289743 12.912701941889381 H 0.0 **** 0.06
32185 H 165.88701525974318 142.06157744450064 13.567057257207345 H 0.0 **** 0.06
32186 C 158.2375415967174 148.76492999856987 78.9224054865565 C 0.0 **** -0.24
32187 H 158.73855231718156 148.9272296805719 79.8761644842507 H 0.0 **** 0.06
32188 H 157.15811053685 148.75685295471982 79.07539420656451 H 0.0 **** 0.06
32189 H 158.55248359866135 147.80795329602864 78.5045941033799 H 0.0 **** 0.06
32190 H 158.5014864365169 149.56603519946754 78.23203257122483 H 0.0 **** 0.06
32191 C 66.09042501627475 100.2057851987579 141.77351388094928 C 0.0 **** -0.24
32192 H 67.17640329532013 100.25971929788068 141.843773755993 H 0.0 **** 0.06
32193 H 65.73112211194372 99.34647702774396 142.34055276976895 H 0.0 **** 0.06
32194 H 65.79964031684231 100.09885564097874 140.72829403629956 H 0.0 **** 0.06
32195 H 65.65401415880518 101.11836979180498 142.18015023377373 H 0.0 **** 0.06
32196 C 39.082403859926615 19.556434757372017 87.91773518659811 C 0.0 **** -0.24
32197 H 38.976866926135585 20.116472000900046 88.84680053521933 H 0.0 **** 0.06
32198 H 40.07168947297703 19.097355139430533 87.88138770411051 H 0.0 **** 0.06
32199 H 38.96357281858906 20.232435247416163 87.07116227351 H 0.0 **** 0.06
32200 H 38.31921285746819 18.779843383210334 87.87328858518383 H 0.0 **** 0.06
32201 C 62.56833917663448 72.49186516835923 159.60402085786134 C 0.0 **** -0.24
32202 H 63.51433905044959 73.01968159717381 159.72536435707053 H 0.0 **** 0.06
32203 H 62.36234877397395 71.90473800434168 160.49927436777614 H 0.0 **** 0.06
32204 H 62.630267055362765 71.82969668591885 158.73977664761952 H 0.0 **** 0.06
32205 H 61.766609092847304 73.21529586362237 159.45059618420908 H 0.0 **** 0.06
32206 C 56.536135880679765 142.7766098416286 127.15230040049474 C 0.0 **** -0.24
32207 H 57.440439754186315 142.46211148400482 127.67314535658991 H 0.0 **** 0.06
32208 H 55.718939876142656 142.09895897788874 127.40086065798596 H 0.0 **** 0.06
32209 H 56.71098154309513 142.75637863774776 126.07593525893887 H 0.0 **** 0.06
32210 H 56.27418234929513 143.78899026687301 127.45926032846415 H 0.0 **** 0.06
32211 C 21.791675671547353 4.945388989308356 102.0439566523151 C 0.0 **** -0.24
32212 H 22.871605702980702 4.8641278130451155 102.16613653796139 H 0.0 **** 0.06
32213 H 21.300159501972445 4.1803273376243055 102.64549777936296 H 0.0 **** 0.06
32214 H 21.53412345828059 4.803625885689229 100.99431992147964 H 0.0 **** 0.06
32215 H 21.46252371675395 5.932193802556583 102.3686741006363 H 0.0 **** 0.06
32216 C 0.9909860063247748 126.13964898377037 53.686328707053576 C 0.0 **** -0.24
32217 H 1.3192446948667325 125.46066648522526 54.4721748341301 H 0.0 **** 0.06
32218 H -0.015380151721544166 125.86628204621383 53.36754369014989 H 0.0 **** 0.06
32219 H 1.6725422205168314 126.07019934556519 52.83829387821925 H 0.0 **** 0.06
32220 H 0.9876359185811978 127.16094431416013 54.06644420849028 H 0.0 **** 0.06
32221 C 21.2419166001292 19.141901334400416 15.317875411156592 C 0.0 **** -0.24
32222 H 21.555649351856715 20.18533412885955 15.28790962598515 H 0.0 **** 0.06
32223 H 21.915080003173983 18.542049160192988 14.704110284288618 H 0.0 **** 0.06
32224 H 20.225991560544998 19.057121355379678 14.931931298518066 H 0.0 **** 0.06
32225 H 21.271135338827378 18.78320185631938 16.346152659964332 H 0.0 **** 0.06
32226 C 97.76014650558099 126.10533142940585 86.74839557809453 C 0.0 **** -0.24
32227 H 98.80837758190117 126.36363300947679 86.59692908311916 H 0.0 **** 0.06
32228 H 97.54234165227214 126.08327882712163 87.8167573837085 H 0.0 **** 0.06
32229 H 97.56283229105213 125.12397674037666 86.31669398304277 H 0.0 **** 0.06
32230 H 97.12909653721343 126.8497433527888 86.26371837836409 H 0.0 **** 0.06
32231 C 139.08644264500663 166.89745196818023 36.75476891233524 C 0.0 **** -0.24
32232 H 138.38267376527955 166.59479391737528 37.53000477780057 H 0.0 **** 0.06
32233 H 139.35956225306876 167.94258545919362 36.8994991561886 H 0.0 **** 0.06
32234 H 138.6232542815522 166.7740575677998 35.776150739053776 H 0.0 **** 0.06
32235 H 139.98126488902363 166.27655210651238 36.814733454878734 H 0.0 **** 0.06
32236 C 112.84731384159767 65.99200778163181 116.62833074162097 C 0.0 **** -0.24
32237 H 111.80137715286392 66.22168760909713 116.42076423899255 H 0.0 **** 0.06
32238 H 113.48590578157592 66.61765598447197 116.00426114443223 H 0.0 **** 0.06
32239 H 113.0393910271479 64.94255979536243 116.40892377808018 H 0.0 **** 0.06
32240 H 113.06070663097665 66.18936573494591 117.67940522642834 H 0.0 **** 0.06
32241 C 53.87179607428695 167.20435710498137 47.62834823405434 C 0.0 **** -0.24
32242 H 54.63765449483759 167.16988319338293 48.402380907293846 H 0.0 **** 0.06
32243 H 54.296282972690804 166.86785627907244 46.682475487794605 H 0.0 **** 0.06
32244 H 53.51019029097296 168.22764315002522 47.52078360250937 H 0.0 **** 0.06
32245 H 53.04386132330653 166.5538716927424 47.90761677790472 H 0.0 **** 0.06
32246 C 67.67054978715862 100.6097154134869 45.708121527618914 C 0.0 **** -0.24
32247 H 68.53252534801055 99.95845710833541 45.84779220039806 H 0.0 **** 0.06
32248 H 66.84531603673253 100.03466835868994 45.286272775025935 H 0.0 **** 0.06
32249 H 67.93372599848885 101.41975845554168 45.028492426438206 H 0.0 **** 0.06
32250 H 67.36990862990956 101.02570313493743 46.66929491070866 H 0.0 **** 0.06
32251 C 2.8744893571682155 132.07604124921218 121.16633360902239 C 0.0 **** -0.24
32252 H 1.8224136373093316 131.79216153521295 121.1288743821388 H 0.0 **** 0.06
32253 H 3.188647963874338 132.43464359574162 120.18677458767988 H 0.0 **** 0.06
32254 H 3.4736487117145174 131.2102160397286 121.44733885047279 H 0.0 **** 0.06
32255 H 3.0097001344248966 132.86658265798363 121.90437256950423 H 0.0 **** 0.06
32256 C 105.45598640258672 5.94038925271056 15.376584410169528 C 0.0 **** -0.24
32257 H 106.30301298875074 5.403110408024077 15.803485567109206 H 0.0 **** 0.06
32258 H 104.71288138779798 5.225017027560455 15.024522347277717 H 0.0 **** 0.06
32259 H 105.79711322556952 6.551547683816807 14.541655660739956 H 0.0 **** 0.06
32260 H 105.01195461572857 6.580877060738857 16.138393648090698 H 0.0 **** 0.06
32261 C 157.0196463054421 127.07305268515299 171.17222346730387 C 0.0 **** -0.24
32262 H 157.8497415077789 126.5055856405159 170.75267935143157 H 0.0 **** 0.06
32263 H 156.19474855971433 126.39612854861232 171.3974048240379 H 0.0 **** 0.06
32264 H 156.69014619541514 127.82102909912783 170.45129480400783 H 0.0 **** 0.06
32265 H 157.34430784118217 127.56777847987516 172.0876514885448 H 0.0 **** 0.06
32266 C 108.08145898414136 31.440928576220088 24.70205142407015 C 0.0 **** -0.24
32267 H 107.47011661744511 32.11411016986821 25.30384645953012 H 0.0 **** 0.06
32268 H 108.54285572241622 30.69415387615915 25.348807021817613 H 0.0 **** 0.06
32269 H 108.85757365281506 32.012609900274526 24.19389234447837 H 0.0 **** 0.06
32270 H 107.4533229456656 30.943784115282384 23.962773606897144 H 0.0 **** 0.06
32271 C 34.56213510765036 144.19345213467142 66.85658870694127 C 0.0 **** -0.24
32272 H 35.63592411722033 144.00616480385474 66.84664856942305 H 0.0 **** 0.06
32273 H 34.02771643805036 143.24250071390352 66.8521935937647 H 0.0 **** 0.06
32274 H 34.28652925744046 144.77029207229083 65.97407509751991 H 0.0 **** 0.06
32275 H 34.300196178982134 144.75364723495852 67.75390504940145 H 0.0 **** 0.06
32276 C 24.181524972819112 48.554196555560495 24.433376359940702 C 0.0 **** -0.24
32277 H 24.797002404019793 47.70890828829907 24.12458277514368 H 0.0 **** 0.06
32278 H 23.800818704040722 48.37859534117894 25.439147265450472 H 0.0 **** 0.06
32279 H 23.3449582245728 48.664976053178904 23.74304297694458 H 0.0 **** 0.06
32280 H 24.78282113168646 49.46384437704978 24.42460237101217 H 0.0 **** 0.06
32281 C 115.30160545220724 172.21918911010158 89.51501386540512 C 0.0 **** -0.24
32282 H 116.007337544662 172.2614295377163 90.34477838134876 H 0.0 **** 0.06
32283 H 114.77607526348214 173.17127743142686 89.43720608256203 H 0.0 **** 0.06
32284 H 114.58114102873265 171.41990113514083 89.69082044423016 H 0.0 **** 0.06
32285 H 115.84085738379136 172.0242632180475 88.58823318747845 H 0.0 **** 0.06
32286 C 71.8810251805869 98.33244263034322 70.92847933408325 C 0.0 **** -0.24
32287 H 72.91686413037485 98.18085565213386 70.628024361726 H 0.0 **** 0.06
32288 H 71.5061711321564 99.25588895523617 70.48559159527655 H 0.0 **** 0.06
32289 H 71.82393672192461 98.40194753622578 72.0149102660315 H 0.0 **** 0.06
32290 H 71.27571277673565 97.49352044613917 70.58640679410819 H 0.0 **** 0.06
32291 C 102.54217388068975 103.64034076128263 38.891685132819475 C 0.0 **** -0.24
32292 H 103.390661374957 103.17524406511708 39.39272425056001 H 0.0 **** 0.06
32293 H 102.68363996640454 104.72142781868217 38.86710178007482 H 0.0 **** 0.06
32294 H 101.62652232330589 103.40554182504903 39.43336662439185 H 0.0 **** 0.06
32295 H 102.46971665199521 103.25994539782889 37.87214673776492 H 0.0 **** 0.06
32296 C 99.54709159996588 156.24093851782305 24.72074252138384 C 0.0 **** -0.24
32297 H 100.5102945738168 156.75096330133374 24.68401422167966 H 0.0 **** 0.06
32298 H 99.03654587567274 156.4972690129996 25.648740317726777 H 0.0 **** 0.06
32299 H 99.70581065485021 155.16293481212426 24.679469263133058 H 0.0 **** 0.06
32300 H 98.9389666858101 156.5522425960694 23.87189093155132 H 0.0 **** 0.06
32301 C 51.05595981707697 99.57948203405951 152.56512592443846 C 0.0 **** -0.24
32302 H 51.3801380540239 98.63641650751791 152.12604273781554 H 0.0 **** 0.06
32303 H 51.27279549734081 100.39560165637118 151.87515689364403 H 0.0 **** 0.06
32304 H 51.58599911815722 99.7451559293263 153.50274080712762 H 0.0 **** 0.06
32305 H 49.98318839171739 99.54053876502189 152.7566020360686 H 0.0 **** 0.06
32306 C 31.944343615773136 42.20046758274012 145.16769798132276 C 0.0 **** -0.24
32307 H 31.404697353811258 42.88740590876125 144.51614152178564 H 0.0 **** 0.06
32308 H 32.94559075793421 42.58823329226391 145.35427259835194 H 0.0 **** 0.06
32309 H 32.015248646750734 41.22493255274006 144.68594691928658 H 0.0 **** 0.06
32310 H 31.410161466762702 42.10096527667548 146.112177142105 H 0.0 **** 0.06
32311 C 12.1141520295173 137.49898989768317 153.0818135096971 C 0.0 **** -0.24
32312 H 12.461521027673477 136.70685822724687 152.41915193902375 H 0.0 **** 0.06
32313 H 11.915896419569677 138.3990149647318 152.4996307360033 H 0.0 **** 0.06
32314 H 12.87835190392385 137.71064673957312 153.82862812819025 H 0.0 **** 0.06
32315 H 11.198409272039441 137.17936929318822 153.58014781877952 H 0.0 **** 0.06
32316 C 84.90041753013219 123.32676415001492 130.0030187183732 C 0.0 **** -0.24
32317 H 84.96981134438158 124.24197627602882 130.59055461913516 H 0.0 **** 0.06
32318 H 84.13841892020781 123.44697179008313 129.2326665659004 H 0.0 **** 0.06
32319 H 84.6300960908248 122.49647813857058 130.6551242559613 H 0.0 **** 0.06
32320 H 85.86270212342089 123.1222590820824 129.53416883765686 H 0.0 **** 0.06
32321 C 147.78175786757876 167.77079825505655 75.79955792739223 C 0.0 **** -0.24
32322 H 147.5171198790539 168.78167563441735 76.11014423008771 H 0.0 **** 0.06
32323 H 148.48301465195664 167.81925946165853 74.96615608275876 H 0.0 **** 0.06
32324 H 146.88257064211814 167.23931015273268 75.48754202526462 H 0.0 **** 0.06
32325 H 148.24410401131328 167.243844264938 76.63400607484925 H 0.0 **** 0.06
32326 C 0.6394988786984186 19.096081896764076 89.14278107558243 C 0.0 **** -0.24
32327 H -0.4202375579910722 19.253904302394858 89.34613542533253 H 0.0 **** 0.06
32328 H 1.2227529788583524 19.374071538297983 90.02034565118934 H 0.0 **** 0.06
32329 H 0.9414737293315625 19.710646281635945 88.29505235998874 H 0.0 **** 0.06
32330 H 0.8118372882332778 18.045558333726376 88.90906779807331 H 0.0 **** 0.06
32331 C 15.971161893381009 129.83269748126784 89.16500521854489 C 0.0 **** -0.24
32332 H 15.972158966879562 130.77901542774848 88.62301761018107 H 0.0 **** 0.06
32333 H 16.556809063199182 129.93680920607386 90.07830983471777 H 0.0 **** 0.06
32334 H 16.408737508190143 129.05512176987506 88.53872430267116 H 0.0 **** 0.06
32335 H 14.94678861675726 129.56107996828916 89.41876590361007 H 0.0 **** 0.06
32336 C 7.2524981500201875 85.792584565889 128.23227094918803 C 0.0 **** -0.24
32337 H 8.203662980793467 86.31413919984266 128.1216118419789 H 0.0 **** 0.06
32338 H 7.183030606721729 85.00367527582813 127.48257793910687 H 0.0 **** 0.06
32339 H 6.434232088436261 86.49788834271652 128.09563145161871 H 0.0 **** 0.06
32340 H 7.192685810854641 85.35421647471202 129.22840903392353 H 0.0 **** 0.06
32341 C 23.183936794843618 149.01537707982237 164.08638458166905 C 0.0 **** -0.24
32342 H 23.19734185702771 147.97248989225153 163.7669337217231 H 0.0 **** 0.06
32343 H 22.904005790485257 149.6486746323834 163.2438532405303 H 0.0 **** 0.06
32344 H 24.175237276103758 149.29849347102788 164.4394874469121 H 0.0 **** 0.06
32345 H 22.46085657170042 149.1389935850744 164.89102491428446 H 0.0 **** 0.06
32346 C 90.97262397007204 40.01346117451919 95.07031431703268 C 0.0 **** -0.24
32347 H 90.88116166151784 40.720407088767615 94.24652049066708 H 0.0 **** 0.06
32348 H 90.03321878528756 39.47348263303917 95.19190493858258 H 0.0 **** 0.06
32349 H 91.20306694292076 40.554836459192416 95.98838895939849 H 0.0 **** 0.06
32350 H 91.77353135711138 39.30606623238049 94.85537493713304 H 0.0 **** 0.06
32351 C 108.43774736107682 166.1623862635276 150.01625036378857 C 0.0 **** -0.24
32352 H 107.65300714624979 165.4101640988348 149.9434852415743 H 0.0 **** 0.06
32353 H 108.65034211580976 166.36392902478795 151.06593515368522 H 0.0 **** 0.06
32354 H 108.1078636338768 167.0799898705875 149.52894703224536 H 0.0 **** 0.06
32355 H 109.3400262624724 165.79473421934202 149.52599534234247 H 0.0 **** 0.06
32356 C 103.09406630658432 29.388852371256164 3.4495903206710636 C 0.0 **** -0.24
32357 H 104.01824510973239 29.23215362958402 2.89178096529659 H 0.0 **** 0.06
32358 H 102.29078612466992 28.812684620885918 2.9907190434050506 H 0.0 **** 0.06
32359 H 102.8366909927058 30.448366738426145 3.434541574938521 H 0.0 **** 0.06
32360 H 103.23285378998344 29.062958799963937 4.481017309552726 H 0.0 **** 0.06
32361 C 111.6107527353102 119.29957846932209 33.56198195739955 C 0.0 **** -0.24
32362 H 110.60257390149167 119.03901596963667 33.23895282011654 H 0.0 **** 0.06
32363 H 111.7915601191425 120.35690867764205 33.36927571366482 H 0.0 **** 0.06
32364 H 112.33449587810281 118.70039298439846 33.011077470907594 H 0.0 **** 0.06
32365 H 111.71251277366792 119.10203142336113 34.62933487877109 H 0.0 **** 0.06
32366 C 108.53387078570717 96.89710448007736 57.511828293506014 C 0.0 **** -0.24
32367 H 107.89699746023615 97.20494480878543 56.6827288571821 H 0.0 **** 0.06
32368 H 108.29694708714266 97.49339320466802 58.392953200776674 H 0.0 **** 0.06
32369 H 109.57942065292758 97.04601977184535 57.24151013839689 H 0.0 **** 0.06
32370 H 108.36154776299236 95.84276602740456 57.730136361786094 H 0.0 **** 0.06
32371 C 48.72472919735662 120.84029923906968 29.85248419029199 C 0.0 **** -0.24
32372 H 49.419406731186456 121.2300022988635 30.59648206040042 H 0.0 **** 0.06
32373 H 47.72406290786979 121.22148699744196 30.055838688233564 H 0.0 **** 0.06
32374 H 48.71567709278632 119.7517836493949 29.89904627687487 H 0.0 **** 0.06
32375 H 49.04023565739786 121.1595742002869 28.858815040641886 H 0.0 **** 0.06
32376 C 98.40603860981358 55.97096709916096 101.32301190284713 C 0.0 **** -0.24
32377 H 98.4328892411977 55.109642258140624 100.65535573817863 H 0.0 **** 0.06
32378 H 99.18798046936175 56.67487314382004 101.04021805618919 H 0.0 **** 0.06
32379 H 98.56894153537445 55.63876584081524 102.34849820572944 H 0.0 **** 0.06
32380 H 97.43325135481987 56.45718171708822 101.24907619298946 H 0.0 **** 0.06
32381 C 5.450725027721546 42.80010678377553 59.316921079398426 C 0.0 **** -0.24
32382 H 5.304211155810407 43.81108865333346 58.93551243306386 H 0.0 **** 0.06
32383 H 6.359589267113364 42.37848444689405 58.886118780908234 H 0.0 **** 0.06
32384 H 4.596684244802361 42.1809171390089 59.04056489741659 H 0.0 **** 0.06
32385 H 5.541769197151837 42.83115070764978 60.402008347285914 H 0.0 **** 0.06
32386 C 83.637921411036 40.169237333023375 143.0007684707142 C 0.0 **** -0.24
32387 H 83.15538769740296 40.880966584536395 142.33058126909367 H 0.0 **** 0.06
32388 H 84.62502136877869 39.916761611545525 142.61196916353498 H 0.0 **** 0.06
32389 H 83.03141411629367 39.26567980870553 143.06762581451312 H 0.0 **** 0.06
32390 H 83.73953699870538 40.613139916046265 143.99050324425747 H 0.0 **** 0.06
32391 C 106.42423775053874 135.41276434855746 160.14296619952123 C 0.0 **** -0.24
32392 H 106.57780827683709 134.68743723893533 160.94168007146905 H 0.0 **** 0.06
32393 H 105.41478317320653 135.8199057846511 160.21099948793673 H 0.0 **** 0.06
32394 H 106.55390683150151 134.9238387274748 159.1776575236059 H 0.0 **** 0.06
32395 H 107.1500766727793 136.22080225567169 160.2415300021216 H 0.0 **** 0.06
32396 C 118.88809818560298 149.27017809331866 74.05374499676788 C 0.0 **** -0.24
32397 H 118.10466146152268 150.02701415668787 74.01527089878898 H 0.0 **** 0.06
32398 H 118.44083339941864 148.29384400783042 74.24212803209336 H 0.0 **** 0.06
32399 H 119.58642737937498 149.5107057002728 74.85579861849195 H 0.0 **** 0.06
32400 H 119.42038375458034 149.248696885052 73.10267043492516 H 0.0 **** 0.06
32401 C 121.58364609646492 95.03984033793714 71.0928236348824 C 0.0 **** -0.24
32402 H 122.31161802397176 94.92195154989338 70.29005200080388 H 0.0 **** 0.06
32403 H 122.10274220085586 95.28737642381725 72.01927726680924 H 0.0 **** 0.06
32404 H 121.0314782475549 94.10929713308474 71.22315086415006 H 0.0 **** 0.06
32405 H 120.88928702404422 95.84120699646587 70.83951127238697 H 0.0 **** 0.06
32406 C 171.82238981796996 69.30739581951885 158.2609273103965 C 0.0 **** -0.24
32407 H 172.55495854290504 68.96331663793325 158.99159603698652 H 0.0 **** 0.06
32408 H 171.28430638917268 70.16588968287388 158.66213633175786 H 0.0 **** 0.06
32409 H 171.11839748576313 68.5036029857106 158.04662134239788 H 0.0 **** 0.06
32410 H 172.3340752031952 69.59534707968643 157.34225144802068 H 0.0 **** 0.06
32411 C 157.58787887297848 3.0457225441143407 145.6675129440556 C 0.0 **** -0.24
32412 H 157.95838194976483 3.155899567350396 144.64796466140132 H 0.0 **** 0.06
32413 H 157.68263148302393 2.005385061121224 145.9782122220323 H 0.0 **** 0.06
32414 H 156.5405036441687 3.3436150887540563 145.70740436241772 H 0.0 **** 0.06
32415 H 158.17182501457307 3.6788241443672547 146.3354863339503 H 0.0 **** 0.06
32416 C 152.12525476820755 122.21165186605313 69.0893631088117 C 0.0 **** -0.24
32417 H 152.64838578976068 122.39477539471966 70.02733744836206 H 0.0 **** 0.06
32418 H 151.911605143301 123.16268791783881 68.60106149749278 H 0.0 **** 0.06
32419 H 151.1900621031236 121.6886451352998 69.29018848954378 H 0.0 **** 0.06
32420 H 152.7503193375379 121.59984850158781 68.4384667050637 H 0.0 **** 0.06
32421 C 91.99741920016248 108.82897009162502 71.09593477463106 C 0.0 **** -0.24
32422 H 91.28428495836175 108.35563319764961 71.77077840151718 H 0.0 **** 0.06
32423 H 91.4601249996557 109.31187632282695 70.27980997134576 H 0.0 **** 0.06
32424 H 92.67056533240446 108.07289490182424 70.69131546229019 H 0.0 **** 0.06
32425 H 92.57424510742857 109.57432139172641 71.64304306669419 H 0.0 **** 0.06
32426 C 126.78329613133286 8.089480658291606 91.02831229252854 C 0.0 **** -0.24
32427 H 126.69418940237284 7.109917896751135 91.50005801411635 H 0.0 **** 0.06
32428 H 125.88088686590453 8.669011921048266 91.22408826152866 H 0.0 **** 0.06
32429 H 126.9107379852386 7.964716545614223 89.95294180817518 H 0.0 **** 0.06
32430 H 127.64778458503037 8.611984730085794 91.43830058853376 H 0.0 **** 0.06
32431 C 40.60637804107864 43.94242519357857 74.9461263649947 C 0.0 **** -0.24
32432 H 41.43353691002619 43.24051766499832 75.05409498827906 H 0.0 **** 0.06
32433 H 40.89050423674297 44.90522429118957 75.37040148433313 H 0.0 **** 0.06
32434 H 39.73260507406701 43.55704612710841 75.47154330520114 H 0.0 **** 0.06
32435 H 40.36999079956536 44.06498366086029 73.88858264837376 H 0.0 **** 0.06
32436 C 68.03252660537336 34.63925845106846 22.982739704851866 C 0.0 **** -0.24
32437 H 69.0544646392477 34.961950827835025 23.182823391372153 H 0.0 **** 0.06
32438 H 67.46547473383777 35.46939339743997 22.56021945522977 H 0.0 **** 0.06
32439 H 67.56535760911915 34.31484312280419 23.912755843246487 H 0.0 **** 0.06
32440 H 68.04598447916668 33.81092658056495 22.274377239250867 H 0.0 **** 0.06
32441 C 41.323277011074154 11.821351957933537 10.677446468056303 C 0.0 **** -0.24
32442 H 41.958214988561224 11.013375508849073 11.039331774233297 H 0.0 **** 0.06
32443 H 40.61696692816098 11.42761937118673 9.94643421998191 H 0.0 **** 0.06
32444 H 41.9430473220491 12.586462980246615 10.208626562658452 H 0.0 **** 0.06
32445 H 40.77773942207699 12.257356262292944 11.51418308326732 H 0.0 **** 0.06
32446 C 49.16315312363287 124.87125420137596 50.92177696219085 C 0.0 **** -0.24
32447 H 49.623732391471464 124.69220117733232 51.89332981087978 H 0.0 **** 0.06
32448 H 48.4389668250393 125.68232514210911 51.00801711643123 H 0.0 **** 0.06
32449 H 48.65746645405352 123.96532112735395 50.58756528761518 H 0.0 **** 0.06
32450 H 49.93263659151819 125.1458492787807 50.2003173870348 H 0.0 **** 0.06
32451 C 109.31589593155928 154.12747721636435 111.82609449633739 C 0.0 **** -0.24
32452 H 109.95602935924762 153.4359878056794 111.27709193802539 H 0.0 **** 0.06
32453 H 108.86441117672445 154.83372079955964 111.1287454266182 H 0.0 **** 0.06
32454 H 109.91299216784915 154.67096079370575 112.55873621397362 H 0.0 **** 0.06
32455 H 108.53205533717596 153.5693320947623 112.33728145516295 H 0.0 **** 0.06
32456 C 159.13281387187925 13.965516458251955 69.70912946480621 C 0.0 **** -0.24
32457 H 159.72700680248454 13.565963653445777 68.8867977034567 H 0.0 **** 0.06
32458 H 159.55191588758962 14.919015958052512 70.02968269632174 H 0.0 **** 0.06
32459 H 159.14770032402882 13.262778866179076 70.54206730649571 H 0.0 **** 0.06
32460 H 158.10574686530694 14.113361011696895 69.37704136436793 H 0.0 **** 0.06
32461 C 171.18246615898613 88.46759328096311 170.20215056179876 C 0.0 **** -0.24
32462 H 171.7396096313791 87.71004139831194 170.75180903233718 H 0.0 **** 0.06
32463 H 171.41104013230108 88.38679129877147 169.139068163192 H 0.0 **** 0.06
32464 H 171.46444567226703 89.4573858851819 170.5603241546831 H 0.0 **** 0.06
32465 H 170.1138266288263 88.3161589852964 170.35634657459167 H 0.0 **** 0.06
32466 C 110.29124339055662 98.30122877336817 9.107669982063328 C 0.0 **** -0.24
32467 H 110.93269849465341 97.52425278343736 9.522599884277213 H 0.0 **** 0.06
32468 H 109.80446259441496 98.84239131854605 9.920239238491575 H 0.0 **** 0.06
32469 H 109.53439656498483 97.84495577384007 8.47066371790217 H 0.0 **** 0.06
32470 H 110.89369393872244 98.99339448561159 8.519609490344067 H 0.0 **** 0.06
32471 C 82.46602396352648 69.9921244243505 37.47704043251724 C 0.0 **** -0.24
32472 H 82.51976006933619 68.96361314548994 37.119212004789745 H 0.0 **** 0.06
32473 H 83.35252315004958 70.53587863206724 37.15177482135326 H 0.0 **** 0.06
32474 H 82.41678993316714 69.99438001470179 38.565884822241884 H 0.0 **** 0.06
32475 H 81.5746838744781 70.47098594790435 37.07208776492894 H 0.0 **** 0.06
32476 C 104.51248239714963 115.73911481010734 134.82935581625674 C 0.0 **** -0.24
32477 H 105.46910720680981 115.24096808302588 134.66916524127262 H 0.0 **** 0.06
32478 H 103.70473353478928 115.01107199496639 134.73884232460617 H 0.0 **** 0.06
32479 H 104.38153203831564 116.52184948603218 134.08294468056351 H 0.0 **** 0.06
32480 H 104.49521280909508 116.18045491282484 135.82615864361813 H 0.0 **** 0.06
32481 C 52.850999041259826 121.36138965221906 169.6715414131863 C 0.0 **** -0.24
32482 H 51.842865281061336 121.04871120684973 169.4003575576363 H 0.0 **** 0.06
32483 H 53.11521178732636 122.25984055689071 169.1127213927512 H 0.0 **** 0.06
32484 H 53.554531414947604 120.56407641984472 169.43252261660956 H 0.0 **** 0.06
32485 H 52.89044664224255 121.57265397386689 170.74036902864395 H 0.0 **** 0.06
32486 C 116.26774554710335 14.263287739304161 26.581494125026552 C 0.0 **** -0.24
32487 H 115.34052841235652 14.833558500662008 26.62973109693735 H 0.0 **** 0.06
32488 H 116.1292497212259 13.398382582156756 25.933305772402775 H 0.0 **** 0.06
32489 H 116.54161471789135 13.929541038613166 27.582367744977205 H 0.0 **** 0.06
32490 H 117.06096020710157 14.895114718629458 26.18007489739415 H 0.0 **** 0.06
32491 C 154.76167685423738 65.26326977063054 157.25888509705024 C 0.0 **** -0.24
32492 H 154.2514592701647 64.69595085090882 156.4809336685537 H 0.0 **** 0.06
32493 H 155.6005303516126 64.68086559744967 157.6426290619939 H 0.0 **** 0.06
32494 H 154.0653048418836 65.47505180360487 158.07054548737702 H 0.0 **** 0.06
32495 H 155.13035208059415 66.20102105436581 156.8428751216602 H 0.0 **** 0.06
32496 C 97.79893409651294 80.73958207027007 1.4378014224109847 C 0.0 **** -0.24
32497 H 98.87745453093504 80.63073360825575 1.3191553158445117 H 0.0 **** 0.06
32498 H 97.54504085933019 80.70123443675662 2.497727317785177 H 0.0 **** 0.06
32499 H 97.29257913653396 79.92957414063568 0.9132835674462001 H 0.0 **** 0.06
32500 H 97.48315383273831 81.69570100555498 1.0223094883682506 H 0.0 **** 0.06
32501 C 72.1710280494317 40.12683380856538 142.5841008411108 C 0.0 **** -0.24
32502 H 71.93114713723037 41.05835284208639 143.0955718459888 H 0.0 **** 0.06
32503 H 72.98036912604141 39.62037072843742 143.11138861471585 H 0.0 **** 0.06
32504 H 72.48239466712164 40.342771716297165 141.5618406745461 H 0.0 **** 0.06
32505 H 71.290651035596 39.484644686653 142.56699467999795 H 0.0 **** 0.06
32506 C 63.3089632574401 27.445917597700287 56.80293254699194 C 0.0 **** -0.24
32507 H 62.70725386339342 26.538425594804778 56.74950722970851 H 0.0 **** 0.06
32508 H 63.52756138749763 27.796041344188467 55.793392332369194 H 0.0 **** 0.06
32509 H 64.24181203008493 27.232765700910136 57.323637438640105 H 0.0 **** 0.06
32510 H 62.75764610073192 28.215358139561857 57.34403590981907 H 0.0 **** 0.06
32511 C 42.516311547642715 33.65809983163881 25.022863247245056 C 0.0 **** -0.24
32512 H 43.511257524900856 33.383737588237295 25.373908907758924 H 0.0 **** 0.06
32513 H 42.60480490342374 34.27972285672256 24.131824567779418 H 0.0 **** 0.06
32514 H 41.995873471425114 34.213027119668425 25.803809541745466 H 0.0 **** 0.06
32515 H 41.95452050234485 32.75537593545813 24.782408302838682 H 0.0 **** 0.06
32516 C 88.29905079154292 19.141680083150845 60.95156791359899 C 0.0 **** -0.24
32517 H 87.27007775405798 18.820269295485225 60.7884826749917 H 0.0 **** 0.06
32518 H 88.4356860627409 20.141948316484466 60.54129796222816 H 0.0 **** 0.06
32519 H 88.97918012263307 18.448354011388 60.45709523768966 H 0.0 **** 0.06
32520 H 88.50895330129026 19.15536916190443 62.021414515002334 H 0.0 **** 0.06
32521 C 104.6270255293941 30.04208951867716 54.070778555206914 C 0.0 **** -0.24
32522 H 104.21150112747333 31.04117354039488 54.19837850147093 H 0.0 **** 0.06
32523 H 103.87239949859381 29.298394475274605 54.326697329922126 H 0.0 **** 0.06
32524 H 105.49079772454533 29.922459584857222 54.72492262562372 H 0.0 **** 0.06
32525 H 104.93555979247105 29.90641552338292 53.0337026712192 H 0.0 **** 0.06
32526 C 155.33392859986685 93.38698422367435 27.006191029599677 C 0.0 **** -0.24
32527 H 154.72772958116786 92.51787914336859 26.752204272932403 H 0.0 **** 0.06
32528 H 154.6887848943536 94.25670388760017 27.13094075002573 H 0.0 **** 0.06
32529 H 156.04911846802688 93.57663322602247 26.205337164194304 H 0.0 **** 0.06
32530 H 155.87165210495897 93.1961850882783 27.934783135708926 H 0.0 **** 0.06
32531 C 120.0376621462247 172.3726638989925 78.33881002027701 C 0.0 **** -0.24
32532 H 120.16465764882554 172.60988490537454 77.28264691009237 H 0.0 **** 0.06
32533 H 118.98282353894552 172.18724987887322 78.5447963732221 H 0.0 **** 0.06
32534 H 120.38455912149212 173.21112749258234 78.94350126475355 H 0.0 **** 0.06
32535 H 120.6182117088126 171.4831975234013 78.58385279362152 H 0.0 **** 0.06
32536 C 132.70923930029505 160.6680666874751 48.428970615752576 C 0.0 **** -0.24
32537 H 132.0966090091234 160.8047526895358 47.537562593410826 H 0.0 **** 0.06
32538 H 132.52339511358167 159.67882409632236 48.84923632395537 H 0.0 **** 0.06
32539 H 132.45271249470647 161.42939792348724 49.16563602978843 H 0.0 **** 0.06
32540 H 133.76236415695223 160.75772564131302 48.16328756771746 H 0.0 **** 0.06
32541 C 4.477504932167825 103.46120424635416 120.87000844703664 C 0.0 **** -0.24
32542 H 5.320403691212 103.8017290540802 121.47070778883398 H 0.0 **** 0.06
32543 H 4.8240388462425585 102.73192514022466 120.13806418353667 H 0.0 **** 0.06
32544 H 4.031337414467849 104.31068659363362 120.3544762686729 H 0.0 **** 0.06
32545 H 3.732837376154066 102.99854921181395 121.51949116384193 H 0.0 **** 0.06
32546 C 152.1475395671783 70.67943562780397 161.59475432554575 C 0.0 **** -0.24
32547 H 151.2331650816274 70.70301395185606 162.18782645887566 H 0.0 **** 0.06
32548 H 152.8741886367477 71.37141168788975 162.02034619989155 H 0.0 **** 0.06
32549 H 151.923745437034 70.97140016084154 160.569063308086 H 0.0 **** 0.06
32550 H 152.55788763745417 69.66925879919626 161.60338241571537 H 0.0 **** 0.06
32551 C 92.97525528153477 25.843748509339697 95.33424561989733 C 0.0 **** -0.24
32552 H 94.00965689878336 26.044470638805315 95.05366384727901 H 0.0 **** 0.06
32553 H 92.8101146562853 26.16218892436072 96.36400019649415 H 0.0 **** 0.06
32554 H 92.77620400427975 24.775555821434622 95.24749795264077 H 0.0 **** 0.06
32555 H 92.30644834594318 26.39273454688859 94.67164635338011 H 0.0 **** 0.06
32556 C 0.7947657092221618 16.177892619418998 166.73850230238236 C 0.0 **** -0.24
32557 H 0.8048440083070716 17.26371962389078 166.6412791444321 H 0.0 **** 0.06
32558 H 1.6910421850368493 15.763718237555736 166.27616664574577 H 0.0 **** 0.06
32559 H -0.08895200674459147 15.778239085329517 166.24141958598452 H 0.0 **** 0.06
32560 H 0.7713143695706037 15.907643854536417 167.7940153592919 H 0.0 **** 0.06
32561 C 92.83090141265964 120.22049652964108 113.54758875149165 C 0.0 **** -0.24
32562 H 93.05428511979608 120.00110620071911 112.50400944942373 H 0.0 **** 0.06
32563 H 92.51848446647952 119.30612200120814 114.05201819095404 H 0.0 **** 0.06
32564 H 92.03015325044151 120.95755704110931 113.6009024053846 H 0.0 **** 0.06
32565 H 93.72272238864488 120.61694341040103 114.0343047251248 H 0.0 **** 0.06
32566 C 77.14442937164819 154.8106818635884 148.59277984282608 C 0.0 **** -0.24
32567 H 78.07942732689935 154.48344827497635 149.04693309006245 H 0.0 **** 0.06
32568 H 77.29287973691822 155.78054078679568 148.11699904341805 H 0.0 **** 0.06
32569 H 76.37726003883688 154.89664000853782 149.36178476796448 H 0.0 **** 0.06
32570 H 76.83015684068926 154.08304643966457 147.8451277672835 H 0.0 **** 0.06
32571 C 59.12575276050666 140.75650124656397 172.2774587451102 C 0.0 **** -0.24
32572 H 59.27261127364591 140.0131794996051 173.06098126542057 H 0.0 **** 0.06
32573 H 58.52554272919747 141.5801865762598 172.6652958366832 H 0.0 **** 0.06
32574 H 58.61094943237339 140.2967772673632 171.43282235698678 H 0.0 **** 0.06
32575 H 60.09427088075836 141.13454713779115 171.9489634469502 H 0.0 **** 0.06
32576 C 110.18304316293612 160.19821229601524 67.40217223204688 C 0.0 **** -0.24
32577 H 110.69377841435727 160.53451159336595 66.50022741532494 H 0.0 **** 0.06
32578 H 110.50675859215696 159.18616194917104 67.646961172329 H 0.0 **** 0.06
32579 H 109.10595017430919 160.2044511929621 67.23347436694499 H 0.0 **** 0.06
32580 H 110.4248437791199 160.8666940239246 68.22754656161271 H 0.0 **** 0.06
32581 C 94.32458629735785 100.73725497114816 154.94425879135883 C 0.0 **** -0.24
32582 H 94.02138148437913 101.7843197058543 154.94959484138286 H 0.0 **** 0.06
32583 H 93.98204574693003 100.264603244553 154.02315644563106 H 0.0 **** 0.06
32584 H 93.88292690731788 100.22686039715117 155.80029416112845 H 0.0 **** 0.06
32585 H 95.41130254616914 100.67380068207163 155.00353394358154 H 0.0 **** 0.06
32586 C 171.43809015122915 51.76687878194258 101.60406387249043 C 0.0 **** -0.24
32587 H 170.62950279801981 51.617307670848106 102.32005072996537 H 0.0 **** 0.06
32588 H 171.96402824132446 52.692032789636016 101.83877509655798 H 0.0 **** 0.06
32589 H 171.02380988942497 51.828997448454984 100.5979439434962 H 0.0 **** 0.06
32590 H 172.1327400909844 50.92837294817684 101.65988170957695 H 0.0 **** 0.06
32591 C 96.41289832300475 153.6470812120991 22.44608831716733 C 0.0 **** -0.24
32592 H 95.50116731842394 154.01258842891085 22.91930523759269 H 0.0 **** 0.06
32593 H 96.17252644810682 153.23878484619073 21.463506678828495 H 0.0 **** 0.06
32594 H 96.85646493501312 152.86748801107086 23.065534271394085 H 0.0 **** 0.06
32595 H 97.1194482428858 154.46960882138626 22.334990487184854 H 0.0 **** 0.06
32596 C 38.63168543962428 16.593437662811425 1.2142633484826106 C 0.0 **** -0.24
32597 H 37.71066147588999 17.177608395001187 1.2150627760590638 H 0.0 **** 0.06
32598 H 39.45852377358182 17.22073577287881 1.5491225262537327 H 0.0 **** 0.06
32599 H 38.83271171200238 16.234315382008162 0.20564956184687588 H 0.0 **** 0.06
32600 H 38.521962156313066 15.744114441728073 1.888463650747326 H 0.0 **** 0.06
32601 C 31.35412258196078 89.41428080900441 5.796039859153126 C 0.0 **** -0.24
32602 H 31.110990169577505 88.37337480453763 5.5807434851986955 H 0.0 **** 0.06
32603 H 31.592554613911503 89.51991522137592 6.854636447547591 H 0.0 **** 0.06
32604 H 30.498839743146206 90.04464771646313 5.551499415640592 H 0.0 **** 0.06
32605 H 32.21281389372841 89.71861690028804 5.19736802301577 H 0.0 **** 0.06
32606 C 8.44373104672627 128.79969600783946 21.41539240851114 C 0.0 **** -0.24
32607 H 7.79736919348818 129.67617050722174 21.458877871325058 H 0.0 **** 0.06
32608 H 8.525731592668734 128.45985650624027 20.38278589124843 H 0.0 **** 0.06
32609 H 8.017353964360268 128.00416756918935 22.027952872439442 H 0.0 **** 0.06
32610 H 9.432523811011691 129.05861517183828 21.793054824732565 H 0.0 **** 0.06
32611 C 98.50588200898056 91.66878878996584 141.7343592890311 C 0.0 **** -0.24
32612 H 97.53158373087115 91.20788151356219 141.5743889481386 H 0.0 **** 0.06
32613 H 98.37168457916346 92.71689776619021 142.00524276868825 H 0.0 **** 0.06
32614 H 99.09428613318002 91.60322356351232 140.8195112388484 H 0.0 **** 0.06
32615 H 99.02539629065492 91.1492136919819 142.53894041521966 H 0.0 **** 0.06
32616 C 29.082225044909137 31.820468415368396 158.28003395116593 C 0.0 **** -0.24
32617 H 28.159110573193175 32.03966008782842 158.81745547392148 H 0.0 **** 0.06
32618 H 29.205210454516532 32.53405149890608 157.4642815354561 H 0.0 **** 0.06
32619 H 29.03581558425867 30.809649823030398 157.87539200136928 H 0.0 **** 0.06
32620 H 29.9272616227056 31.901109190474486 158.96298885617813 H 0.0 **** 0.06
32621 C 151.15736110141972 170.22201466181735 45.873453035810144 C 0.0 **** -0.24
32622 H 151.7976081824732 171.0774721119775 46.08802563836116 H 0.0 **** 0.06
32623 H 150.81221868330016 169.78180887697934 46.80917669900481 H 0.0 **** 0.06
32624 H 151.72122796966028 169.47923640621212 45.30775183634927 H 0.0 **** 0.06
32625 H 150.29952268977374 170.54926142926365 45.286704389504905 H 0.0 **** 0.06
32626 C 105.62366632864575 72.41727909916598 25.765172635541006 C 0.0 **** -0.24
32627 H 105.66365905994832 73.33591529034952 26.352044312487067 H 0.0 **** 0.06
32628 H 104.58350337336506 72.14321127194165 25.59100599822773 H 0.0 **** 0.06
32629 H 106.1253971417211 71.61752815629184 26.309675893279575 H 0.0 **** 0.06
32630 H 106.12395550369251 72.57537671809045 24.809004183094913 H 0.0 **** 0.06
32631 C 116.28729818656379 154.90717461860166 64.4388658075842 C 0.0 **** -0.24
32632 H 116.1324752588593 153.85334757805532 64.20786665491006 H 0.0 **** 0.06
32633 H 116.75156935751892 154.99966166386278 65.42069145949957 H 0.0 **** 0.06
32634 H 115.32674660420238 155.42411613276147 64.44095472358484 H 0.0 **** 0.06
32635 H 116.93696910318045 155.35223203290627 63.685233414895634 H 0.0 **** 0.06
32636 C 110.05170056067269 39.96358606179942 157.7333779309506 C 0.0 **** -0.24
32637 H 109.53087114777239 40.28891666501465 158.63459041387554 H 0.0 **** 0.06
32638 H 110.51426943542779 40.82579708155072 157.25130384410087 H 0.0 **** 0.06
32639 H 109.3398440316679 39.502712402004505 157.04857873658216 H 0.0 **** 0.06
32640 H 110.82080950647628 39.23942807379723 158.00067701960853 H 0.0 **** 0.06
32641 C 94.3201036374895 70.9612531421993 140.58678874169038 C 0.0 **** -0.24
32642 H 94.28915608827813 70.12029706745729 139.8932634403409 H 0.0 **** 0.06
32643 H 94.52791798255711 71.87904202802657 140.03670152631332 H 0.0 **** 0.06
32644 H 95.10574798382962 70.79413209531769 141.3241615942107 H 0.0 **** 0.06
32645 H 93.3589333725582 71.04955917296269 141.09355097546967 H 0.0 **** 0.06
32646 C 16.485878008437012 131.44974670253092 49.00781204983609 C 0.0 **** -0.24
32647 H 16.665578062414298 132.33124965999315 49.62423694030463 H 0.0 **** 0.06
32648 H 15.421830331021717 131.37467325886766 48.78375691966866 H 0.0 **** 0.06
32649 H 16.80859564320255 130.55897762602058 49.545653970571976 H 0.0 **** 0.06
32650 H 17.04846355933858 131.53683296582247 48.078337110365936 H 0.0 **** 0.06
32651 C 165.44261456970884 50.210873571437176 46.561402456680696 C 0.0 **** -0.24
32652 H 165.3615734467764 49.39863588814487 45.83876597933582 H 0.0 **** 0.06
32653 H 165.78817477159495 51.11346886170901 46.05547249273977 H 0.0 **** 0.06
32654 H 166.15299027765525 49.93516078061262 47.34056289297763 H 0.0 **** 0.06
32655 H 164.46543282634477 50.39573391697722 47.00893090565937 H 0.0 **** 0.06
32656 C 65.05193663930199 169.2100134722488 139.36854155969075 C 0.0 **** -0.24
32657 H 65.76988860538985 168.79111784695462 140.07322985822168 H 0.0 **** 0.06
32658 H 65.00945498096415 168.58339159487167 138.4773398242735 H 0.0 **** 0.06
32659 H 65.36245871939548 170.21790506890946 139.09016088755962 H 0.0 **** 0.06
32660 H 64.0665079642458 169.2484644824322 139.83347386464047 H 0.0 **** 0.06
32661 C 103.80479670138811 19.82161629534079 90.74848235907555 C 0.0 **** -0.24
32662 H 104.75747504535923 20.03002984266803 91.23670053487164 H 0.0 **** 0.06
32663 H 103.04388476068573 20.5011307162992 91.13150629639269 H 0.0 **** 0.06
32664 H 103.50951121017482 18.792748770300136 90.95315103525431 H 0.0 **** 0.06
32665 H 103.90961686728218 19.96201584677189 89.67269665488894 H 0.0 **** 0.06
32666 C 98.74211105329942 164.07652113221388 92.62891505999812 C 0.0 **** -0.24
32667 H 99.10535675940207 164.21494591006365 93.64725848130712 H 0.0 **** 0.06
32668 H 98.06877542742635 164.89450719989532 92.3700325535907 H 0.0 **** 0.06
32669 H 98.20644301859849 163.12924840022345 92.55968111190913 H 0.0 **** 0.06
32670 H 99.58591786597464 164.06824054700905 91.93936472491981 H 0.0 **** 0.06
32671 C 147.87081757241648 57.318399563531074 39.937687789172 C 0.0 **** -0.24
32672 H 147.97450511683988 57.10813023767656 41.00240272855922 H 0.0 **** 0.06
32673 H 148.00025531726664 58.3870106305595 39.764498705416315 H 0.0 **** 0.06
32674 H 146.87982224216066 57.01303710420919 39.60178421644349 H 0.0 **** 0.06
32675 H 148.62888497681755 56.76504231191484 39.38297005835153 H 0.0 **** 0.06
32676 C 10.283336141521374 155.84426723228484 6.287767597583773 C 0.0 **** -0.24
32677 H 11.002817642491777 156.6099348522441 6.580632232381362 H 0.0 **** 0.06
32678 H 10.663546748774934 155.30110272604375 5.422295811202133 H 0.0 **** 0.06
32679 H 9.334995602385561 156.31652044739764 6.031981946707177 H 0.0 **** 0.06
32680 H 10.133800410750382 155.151452424601 7.1151942477294625 H 0.0 **** 0.06
32681 C 6.398136473217107 114.12791877124306 103.90925835914328 C 0.0 **** -0.24
32682 H 7.0481534558284125 114.984372831038 103.73483500951369 H 0.0 **** 0.06
32683 H 5.670056795712185 114.05339997025726 103.10020942645852 H 0.0 **** 0.06
32684 H 5.875781478346596 114.25473080858967 104.85689601111494 H 0.0 **** 0.06
32685 H 6.998000236583664 113.21777615043908 103.94343577063174 H 0.0 **** 0.06
32686 C 79.41221731881073 156.40283454516953 1.228604347310899 C 0.0 **** -0.24
32687 H 78.72136500841047 155.77072483664955 1.7866496777862153 H 0.0 **** 0.06
32688 H 80.25233393511718 155.80135652332544 0.8796638372197947 H 0.0 **** 0.06
32689 H 79.77894526913832 157.19947544822554 1.8763890994969472 H 0.0 **** 0.06
32690 H 78.89641099301228 156.83832682966607 0.37340293194358765 H 0.0 **** 0.06
32691 C 27.8375912251457 64.49148005979802 24.045544932162862 C 0.0 **** -0.24
32692 H 27.62474147451546 63.830288511364145 23.205057616862632 H 0.0 **** 0.06
32693 H 28.3809976961645 65.36750733697338 23.688931904122043 H 0.0 **** 0.06
32694 H 28.443215756798054 63.96092108002627 24.779952358197797 H 0.0 **** 0.06
32695 H 26.90123725065027 64.80652706383769 24.504995448474098 H 0.0 **** 0.06
32696 C 157.67152503409983 170.41277641575905 156.7795900665615 C 0.0 **** -0.24
32697 H 156.62819822156 170.72557841451282 156.72249979031722 H 0.0 **** 0.06
32698 H 158.3179177029903 171.28073695037378 156.6527390132448 H 0.0 **** 0.06
32699 H 157.87662496684015 169.68674516250013 155.99234179219408 H 0.0 **** 0.06
32700 H 157.860575534372 169.95707029491393 157.7513282067406 H 0.0 **** 0.06
32701 C 99.10948476674574 165.84090124666005 26.380999160234182 C 0.0 **** -0.24
32702 H 99.05326145739008 164.79090806252717 26.092199118153644 H 0.0 **** 0.06
32703 H 99.67898256815096 166.39362733445915 25.634009666740127 H 0.0 **** 0.06
32704 H 99.60183925130107 165.92545255751978 27.34987703051536 H 0.0 **** 0.06
32705 H 98.10168713774215 166.25307306000795 26.447876463356067 H 0.0 **** 0.06
32706 C 128.72025078896695 161.6754698269223 47.58296287235129 C 0.0 **** -0.24
32707 H 129.6154360071573 161.84443757260536 48.18270661169046 H 0.0 **** 0.06
32708 H 128.02897995485714 162.5063337029155 47.720745355159096 H 0.0 **** 0.06
32709 H 128.24194115983934 160.74854623963594 47.8992060438743 H 0.0 **** 0.06
32710 H 128.99585161650643 161.60161804729836 46.531773433559295 H 0.0 **** 0.06
32711 C 16.630198668993394 15.36269791584482 48.86916940072717 C 0.0 **** -0.24
32712 H 16.50220948417539 14.711005467872553 49.733672678081234 H 0.0 **** 0.06
32713 H 17.674651178555706 15.3511609822406 48.557336041883445 H 0.0 **** 0.06
32714 H 16.340600982578927 16.379277596851693 49.13427523369376 H 0.0 **** 0.06
32715 H 16.002746359711637 15.007208361757648 48.05167568890539 H 0.0 **** 0.06
32716 C 87.38551260266287 100.42588162506323 163.38895691887473 C 0.0 **** -0.24
32717 H 87.81778329780822 101.13840319388223 162.68621852300538 H 0.0 **** 0.06
32718 H 86.74916639756124 100.95565205751268 164.09794350932526 H 0.0 **** 0.06
32719 H 88.18466812812567 99.91732925580098 163.92711310894674 H 0.0 **** 0.06
32720 H 86.7912932726936 99.6932460593714 162.84280886061703 H 0.0 **** 0.06
32721 C 151.399575497558 5.629725477568911 88.82110604777218 C 0.0 **** -0.24
32722 H 152.47556265174168 5.680652752936567 88.98994994774694 H 0.0 **** 0.06
32723 H 151.08392321385048 6.49212189130202 88.23407432572151 H 0.0 **** 0.06
32724 H 150.8814194353335 5.6336291607723865 89.78000606253867 H 0.0 **** 0.06
32725 H 151.15961120185406 4.714254310365504 88.28139980200208 H 0.0 **** 0.06
32726 C 56.62342536758638 152.03487578728098 34.75374444122073 C 0.0 **** -0.24
32727 H 56.50359314137381 152.58044660633539 33.817281453050796 H 0.0 **** 0.06
32728 H 57.182085179438104 151.1162412935302 34.569518716756264 H 0.0 **** 0.06
32729 H 55.64182524600665 151.78848214030683 35.1583906494611 H 0.0 **** 0.06
32730 H 57.16655526152954 152.65322326747236 35.46763271379335 H 0.0 **** 0.06
32731 C 44.829925627204986 111.91008524444246 128.4226959283997 C 0.0 **** -0.24
32732 H 43.83451062667828 112.13359861881929 128.0382210294019 H 0.0 **** 0.06
32733 H 44.99271102126137 112.45989912511476 129.34924477997083 H 0.0 **** 0.06
32734 H 45.577486653816294 112.20680177753997 127.68676929758976 H 0.0 **** 0.06
32735 H 44.91223233767843 110.840214222709 128.61403015069877 H 0.0 **** 0.06
32736 C 19.979644267260753 55.63963278627375 136.03060529221295 C 0.0 **** -0.24
32737 H 20.793856108675904 55.670587845122554 136.75547706098627 H 0.0 **** 0.06
32738 H 20.14970604586334 56.39156202091402 135.26017190993508 H 0.0 **** 0.06
32739 H 19.03616974913688 55.84424888386167 136.53714481190602 H 0.0 **** 0.06
32740 H 19.939040534886452 54.65122787634152 135.57325286081257 H 0.0 **** 0.06
32741 C 33.65639446194186 100.24829444500841 96.18634569421081 C 0.0 **** -0.24
32742 H 33.71213435289644 100.2964308669753 97.27431773545007 H 0.0 **** 0.06
32743 H 33.43561752743116 99.22571956789483 95.87945098195067 H 0.0 **** 0.06
32744 H 34.61032065342863 100.55845243310324 95.75929178533718 H 0.0 **** 0.06
32745 H 32.866826992983164 100.91184752077709 95.83332767868467 H 0.0 **** 0.06
32746 C 10.39390465171141 21.513621999138593 60.83982314869772 C 0.0 **** -0.24
32747 H 11.16706222635844 20.929044203230376 61.33811256435884 H 0.0 **** 0.06
32748 H 10.85801906449484 22.32350693712374 60.27675708573497 H 0.0 **** 0.06
32749 H 9.71612434511303 21.929342919131358 61.58539216438123 H 0.0 **** 0.06
32750 H 9.835619489149565 20.87071363413216 60.15912519529368 H 0.0 **** 0.06
32751 C 112.74574679318897 96.43021163087971 154.11527132333504 C 0.0 **** -0.24
32752 H 112.44021909569699 97.4660793598193 154.26511150252583 H 0.0 **** 0.06
32753 H 113.3577670688216 96.10700262761753 154.95708739341393 H 0.0 **** 0.06
32754 H 113.32253884809785 96.35131223083349 153.1947454169964 H 0.0 **** 0.06
32755 H 111.86043860401065 95.79761990424407 154.0448772553325 H 0.0 **** 0.06
32756 C 168.21430132315507 101.2238538488362 102.33919615151075 C 0.0 **** -0.24
32757 H 168.1677159193552 102.31237135528573 102.29043489563708 H 0.0 **** 0.06
32758 H 167.26954541784292 100.80407658924969 101.99472191705553 H 0.0 **** 0.06
32759 H 168.3965975891666 100.91400200607865 103.36844690121887 H 0.0 **** 0.06
32760 H 169.02458548453433 100.86678971073792 101.70281105556597 H 0.0 **** 0.06
32761 C 22.84427873174343 129.60004791576566 130.59315363045576 C 0.0 **** -0.24
32762 H 23.45616833183209 130.20725412849066 131.25997062768477 H 0.0 **** 0.06
32763 H 22.52394768888773 128.6975174111556 131.11492842201972 H 0.0 **** 0.06
32764 H 23.429140019402645 129.32387476897694 129.71480239057126 H 0.0 **** 0.06
32765 H 21.96964091881093 130.17056028293388 130.28198888682635 H 0.0 **** 0.06
32766 C 90.5090987167917 1.7440828441748977 134.42930886356322 C 0.0 **** -0.24
32767 H 90.02946448536345 2.0463544047308915 133.49934486372132 H 0.0 **** 0.06
32768 H 91.0088006837361 2.604236065795419 134.8765108371315 H 0.0 **** 0.06
32769 H 91.24284550051284 0.9647153752412692 134.22382604555878 H 0.0 **** 0.06
32770 H 89.7559558459899 1.3617952063523262 135.11853173851085 H 0.0 **** 0.06
32771 C 141.33258056608463 92.60292505057458 161.27565034071063 C 0.0 **** -0.24
32772 H 141.3047738218121 91.80560722977367 160.53266092332467 H 0.0 **** 0.06
32773 H 140.32939560313275 93.01087353256531 161.40853080200708 H 0.0 **** 0.06
32774 H 142.0037581983524 93.39176233398553 160.9355495910591 H 0.0 **** 0.06
32775 H 141.69108482745298 92.20341059337557 162.2237906522087 H 0.0 **** 0.06
32776 C 160.00601765752512 9.283589681452753 150.663542567749 C 0.0 **** -0.24
32777 H 160.85335688981422 9.628241365848972 150.0710194712428 H 0.0 **** 0.06
32778 H 160.34602801156265 8.542362520694596 151.3871042121662 H 0.0 **** 0.06
32779 H 159.2621560340471 8.833661790179924 150.00521970458414 H 0.0 **** 0.06
32780 H 159.56198446160852 10.129095313952611 151.18890142587227 H 0.0 **** 0.06
32781 C 20.917833892217637 14.840795941002852 24.352669931882225 C 0.0 **** -0.24
32782 H 21.19081921216536 14.50161802211528 25.351028829590895 H 0.0 **** 0.06
32783 H 21.215703907983908 15.882385686841246 24.228571317183054 H 0.0 **** 0.06
32784 H 19.838926236695478 14.75385773810359 24.221684348561567 H 0.0 **** 0.06
32785 H 21.42444279871767 14.226619489024927 23.608284357631035 H 0.0 **** 0.06
32786 C 96.45711265300986 155.69785273350857 43.74211325386031 C 0.0 **** -0.24
32787 H 96.94762637103128 155.1351322222186 42.94818939804013 H 0.0 **** 0.06
32788 H 97.07359079145704 156.5546695186325 44.01366781841213 H 0.0 **** 0.06
32789 H 96.32276116836255 155.0552997805109 44.6119819520232 H 0.0 **** 0.06
32790 H 95.48490242260209 156.04481758333606 43.39300463496774 H 0.0 **** 0.06
32791 C 166.7988916933727 35.48025622018588 49.28763150658796 C 0.0 **** -0.24
32792 H 166.2295160884911 34.96631203244533 50.0612948334861 H 0.0 **** 0.06
32793 H 167.49969138776027 34.78219556725526 48.828882861541956 H 0.0 **** 0.06
32794 H 167.35039378188907 36.30881125975213 49.73282494635856 H 0.0 **** 0.06
32795 H 166.11691643695895 35.86206431295619 48.528156356975785 H 0.0 **** 0.06
32796 C 81.5508006712788 152.6108585118589 94.1625595728986 C 0.0 **** -0.24
32797 H 82.24399659766365 151.9127274484976 94.6325836481945 H 0.0 **** 0.06
32798 H 81.51692764817251 153.53381851115802 94.74124829483117 H 0.0 **** 0.06
32799 H 80.55596052357797 152.16693217873637 94.12720884167737 H 0.0 **** 0.06
32800 H 81.88720652855683 152.82949948595518 93.14924303808101 H 0.0 **** 0.06
32801 C 27.39985830021925 160.8844375029616 150.43261040007758 C 0.0 **** -0.24
32802 H 27.152057671101772 161.5323983720397 151.2731267502223 H 0.0 **** 0.06
32803 H 26.814346962671095 161.17925231138497 149.56120009770342 H 0.0 **** 0.06
32804 H 27.171146910170933 159.85070348227023 150.69071162748455 H 0.0 **** 0.06
32805 H 28.462293426831792 160.97470502811922 150.20386907803214 H 0.0 **** 0.06
32806 C 19.835961914278073 2.4671535399180087 45.08547534075902 C 0.0 **** -0.24
32807 H 20.51747156321096 1.6168583920250938 45.11621543299191 H 0.0 **** 0.06
32808 H 20.409350348423743 3.393047684706609 45.110312435464806 H 0.0 **** 0.06
32809 H 19.169127984586567 2.4297444770985024 45.947800280132924 H 0.0 **** 0.06
32810 H 19.246724374078156 2.427189321381455 44.16968871188891 H 0.0 **** 0.06
32811 C 172.53717625402112 59.50948425168147 88.36306695824346 C 0.0 **** -0.24
32812 H 171.8588684355305 59.99485720549988 87.66241673016633 H 0.0 **** 0.06
32813 H 172.83689144100265 58.53868716366472 87.96646004114702 H 0.0 **** 0.06
32814 H 172.0341593343012 59.3712012708945 89.320034552285 H 0.0 **** 0.06
32815 H 173.4199874492473 60.13305476696415 88.50408961788656 H 0.0 **** 0.06
32816 C 108.95682404468505 129.17509974480106 9.599019096072766 C 0.0 **** -0.24
32817 H 108.81394790300217 128.15887563875938 9.96603020166333 H 0.0 **** 0.06
32818 H 108.22711853809838 129.83580971735483 10.066786541274723 H 0.0 **** 0.06
32819 H 108.82316303287661 129.1931865782267 8.517314057578005 H 0.0 **** 0.06
32820 H 109.96400399867079 129.51258994236676 9.846288442297293 H 0.0 **** 0.06
32821 C 135.6678558916709 145.57677396659292 119.87649718144547 C 0.0 **** -0.24
32822 H 136.52687683427158 146.07884902679453 119.43107395868421 H 0.0 **** 0.06
32823 H 135.51018458834326 145.95530780919154 120.88704956028323 H 0.0 **** 0.06
32824 H 135.85462530777045 144.50401851734108 119.91491709935985 H 0.0 **** 0.06
32825 H 134.78050333934493 145.77078608797189 119.27391363473504 H 0.0 **** 0.06
32826 C 42.07755502862322 7.449348163879961 50.396555183956195 C 0.0 **** -0.24
32827 H 42.84375925674719 6.754507267661069 50.053082641231754 H 0.0 **** 0.06
32828 H 41.7799797345907 8.097994568334258 49.571629115331746 H 0.0 **** 0.06
32829 H 42.47625378897773 8.055774790042364 51.20969061242067 H 0.0 **** 0.06
32830 H 41.21173985359303 6.890261895602009 50.75063539790057 H 0.0 **** 0.06
32831 C 81.78350311882105 54.20053637897266 83.08232858492087 C 0.0 **** -0.24
32832 H 81.67291486284023 53.79644156716557 82.07577763166464 H 0.0 **** 0.06
32833 H 82.22383664696247 53.443117603335 83.73132040758941 H 0.0 **** 0.06
32834 H 80.80473810250874 54.48554385239794 83.46835963486382 H 0.0 **** 0.06
32835 H 82.43154232337594 55.07603044665649 83.05373683160923 H 0.0 **** 0.06
32836 C 142.55729957226256 91.65453233686355 31.25068742583875 C 0.0 **** -0.24
32837 H 142.4410412445503 90.59662541326598 31.48799556366521 H 0.0 **** 0.06
32838 H 143.42526075453893 91.78940694246623 30.605233001865145 H 0.0 **** 0.06
32839 H 142.69836990808736 92.21972107941542 32.171699378359904 H 0.0 **** 0.06
32840 H 141.66370013038755 92.0117933612774 30.738810697603924 H 0.0 **** 0.06
32841 C 43.96131988405482 137.21063604580542 155.9002136353557 C 0.0 **** -0.24
32842 H 43.624052479090906 138.1768246158444 155.52538631475124 H 0.0 **** 0.06
32843 H 43.34300179051499 136.91372392667603 156.7476291929614 H 0.0 **** 0.06
32844 H 45.00143420222581 137.28736985367465 156.21871692059244 H 0.0 **** 0.06
32845 H 43.87713380351518 136.46556087930924 155.1092124471916 H 0.0 **** 0.06
32846 C 72.4184947941786 29.8755679245661 31.85388170532957 C 0.0 **** -0.24
32847 H 73.46115433105774 29.558884154756583 31.807194371477294 H 0.0 **** 0.06
32848 H 72.34183245807515 30.917113588933717 31.539614719875544 H 0.0 **** 0.06
32849 H 72.05445462782978 29.775338084981968 32.87613456384764 H 0.0 **** 0.06
32850 H 71.8198556982544 29.25039674407833 31.191278945704312 H 0.0 **** 0.06
32851 C 21.14007598296513 168.11800914605396 6.386214537989957 C 0.0 **** -0.24
32852 H 22.10643880652958 167.8158620376692 5.983378114260546 H 0.0 **** 0.06
32853 H 21.10299685943673 169.2043058928618 6.467058197390287 H 0.0 **** 0.06
32854 H 21.003662581036394 167.67499190812077 7.373663952749865 H 0.0 **** 0.06
32855 H 20.346774054438413 167.7752656931776 5.722551869995016 H 0.0 **** 0.06
32856 C 37.1612778133656 113.36533486241407 127.80633448434082 C 0.0 **** -0.24
32857 H 36.306307196572064 114.01445321281844 127.61631920627156 H 0.0 **** 0.06
32858 H 37.816550934350545 113.3646348562144 126.93406451949113 H 0.0 **** 0.06
32859 H 36.811574542434016 112.35111876371963 127.99930213490131 H 0.0 **** 0.06
32860 H 37.70943169328602 113.73237307229837 128.67322168680028 H 0.0 **** 0.06
32861 C 150.32762283426862 7.097940504861413 49.0586665941978 C 0.0 **** -0.24
32862 H 151.2545336080957 6.524847918487751 49.063079790155655 H 0.0 **** 0.06
32863 H 150.0368421637621 7.311780804651789 48.03060186491007 H 0.0 **** 0.06
32864 H 150.47665668612066 8.03322228073921 49.59748759700935 H 0.0 **** 0.06
32865 H 149.54211831314046 6.519816519484948 49.545617820918125 H 0.0 **** 0.06
32866 C 36.42588059652701 63.73827553447606 54.21184865583638 C 0.0 **** -0.24
32867 H 36.61149643475545 63.11022856767926 55.08390713372593 H 0.0 **** 0.06
32868 H 36.80404965018835 64.74287239387195 54.400232548845665 H 0.0 **** 0.06
32869 H 35.35366159404296 63.78307226643172 54.017810303189165 H 0.0 **** 0.06
32870 H 36.934046213301315 63.31524035460366 53.345167553115374 H 0.0 **** 0.06
32871 C 107.56271915062337 133.61183154449546 126.79292869065242 C 0.0 **** -0.24
32872 H 107.88901850359363 133.44358446097567 125.76546633030617 H 0.0 **** 0.06
32873 H 106.47319875965584 133.6399058614481 126.82705142035621 H 0.0 **** 0.06
32874 H 107.96187985204875 134.56137358978492 127.14890595377489 H 0.0 **** 0.06
32875 H 107.9262551063176 132.8034668947435 127.42585075053697 H 0.0 **** 0.06
32876 C 66.98172619204338 149.69204804843417 163.98827527257464 C 0.0 **** -0.24
32877 H 66.37105730990889 149.56348967663877 164.88206241275216 H 0.0 **** 0.06
32878 H 66.88839121906588 148.8099666690806 163.35513374391135 H 0.0 **** 0.06
32879 H 68.02477255707053 149.8237043191841 164.27741730267897 H 0.0 **** 0.06
32880 H 66.64302647875166 150.5716529706722 163.4403575005354 H 0.0 **** 0.06
32881 C 134.418537769734 79.71624397530717 157.02709531733083 C 0.0 **** -0.24
32882 H 134.56966963899097 79.84461013584071 158.09897612972793 H 0.0 **** 0.06
32883 H 134.53371087473684 80.67901599345949 156.52770426473978 H 0.0 **** 0.06
32884 H 133.41561658339484 79.32952113997453 156.84535721756174 H 0.0 **** 0.06
32885 H 135.1551780950481 79.01376243764474 156.63746613391356 H 0.0 **** 0.06
32886 C 16.21928034491492 147.48939035297707 148.06681628738212 C 0.0 **** -0.24
32887 H 16.307122200649417 146.73953998562024 147.27973658454158 H 0.0 **** 0.06
32888 H 16.52984636197874 148.45973408031813 147.67988997078623 H 0.0 **** 0.06
32889 H 16.856734088180616 147.21076821443893 148.90550907621494 H 0.0 **** 0.06
32890 H 15.183426056224278 147.54483025954636 148.4007990424525 H 0.0 **** 0.06
32891 C 102.08532531314586 71.80310716614105 130.46094160136872 C 0.0 **** -0.24
32892 H 103.06479474141966 71.5907037541244 130.88802306941733 H 0.0 **** 0.06
32893 H 101.39916791109258 72.09874393247001 131.25503928214886 H 0.0 **** 0.06
32894 H 101.70399124960954 70.91066551352833 129.96395524850288 H 0.0 **** 0.06
32895 H 102.1726617996205 72.61299709909424 129.73700458299678 H 0.0 **** 0.06
32896 C 77.10091543192203 147.22600894175898 23.443992739087378 C 0.0 **** -0.24
32897 H 77.07817311538695 146.5552442524829 24.30327367296951 H 0.0 **** 0.06
32898 H 76.0957129819589 147.32109071365554 23.0312776753359 H 0.0 **** 0.06
32899 H 77.76953058279248 146.82087622799475 22.684056251296795 H 0.0 **** 0.06
32900 H 77.45844512940299 148.20579574250564 23.75866795257366 H 0.0 **** 0.06
32901 C 13.412231041445835 124.48720126200956 158.55436904632217 C 0.0 **** -0.24
32902 H 14.295155160062365 124.98099241174296 158.14727137443032 H 0.0 **** 0.06
32903 H 13.622933180171117 123.4286023236682 158.7015629393124 H 0.0 **** 0.06
32904 H 12.580360165774096 124.59982684606786 157.85804401459077 H 0.0 **** 0.06
32905 H 13.150361278537986 124.94256921658132 159.5092420365719 H 0.0 **** 0.06
32906 C 142.1138041815126 69.84665659981218 113.79115393390617 C 0.0 **** -0.24
32907 H 142.22768241177656 70.13327518454508 112.74568144676081 H 0.0 **** 0.06
32908 H 141.35717001226604 69.06509870608346 113.87198231271785 H 0.0 **** 0.06
32909 H 141.80475806777557 70.71321140734662 114.37449895314907 H 0.0 **** 0.06
32910 H 143.0646338347904 69.4724449922911 114.17130632824095 H 0.0 **** 0.06
32911 C 58.052046923036556 18.507715991412965 56.218403187788766 C 0.0 **** -0.24
32912 H 57.09725328217668 18.95362790442374 56.496026743354236 H 0.0 **** 0.06
32913 H 58.59405391978525 18.22134543639544 57.11967701128667 H 0.0 **** 0.06
32914 H 58.64110276933249 19.230453296937185 55.6544039294416 H 0.0 **** 0.06
32915 H 57.875488867743385 17.62454096319641 55.60456012634657 H 0.0 **** 0.06
32916 C 67.57593781719493 115.97005367806435 130.0535194668126 C 0.0 **** -0.24
32917 H 67.02137369614314 116.50645846158591 129.2835845812531 H 0.0 **** 0.06
32918 H 67.66534059694328 114.92044103478767 129.77368447285204 H 0.0 **** 0.06
32919 H 67.04793698774728 116.0491051776234 131.0038647577401 H 0.0 **** 0.06
32920 H 68.57075296115863 116.40545030653621 130.15379819463365 H 0.0 **** 0.06
32921 C 154.90782418156115 101.2013782725682 124.11972889240462 C 0.0 **** -0.24
32922 H 155.22769384425453 102.11762817873984 124.61589689908527 H 0.0 **** 0.06
32923 H 153.95296885383485 101.37301628654842 123.6214639842899 H 0.0 **** 0.06
32924 H 154.79618505705088 100.40905461259348 124.85941266831375 H 0.0 **** 0.06
32925 H 155.6555702787604 100.90764541197512 123.38276554368147 H 0.0 **** 0.06
32926 C 40.160391460002586 142.87458462505157 169.43626452860204 C 0.0 **** -0.24
32927 H 39.2212641519734 142.49776228895325 169.84151385133526 H 0.0 **** 0.06
32928 H 40.510742438950274 142.2055276903533 168.65006340568914 H 0.0 **** 0.06
32929 H 40.90516612692511 142.9230770450938 170.23099554013368 H 0.0 **** 0.06
32930 H 40.0040321811571 143.87038714997095 169.02308508139984 H 0.0 **** 0.06
32931 C 39.998586521311836 118.78826372380445 104.25626175206014 C 0.0 **** -0.24
32932 H 39.63349196266279 117.87163233929425 103.79205481746095 H 0.0 **** 0.06
32933 H 39.18825482933437 119.5172709605614 104.3059331853876 H 0.0 **** 0.06
32934 H 40.81709154310795 119.19508740821576 103.66230029865622 H 0.0 **** 0.06
32935 H 40.35253076332327 118.56947088748697 105.26335426678907 H 0.0 **** 0.06
32936 C 112.0295775549867 131.6962081844872 3.659078102998656 C 0.0 **** -0.24
32937 H 112.41419694816221 132.3317385155205 4.457444771246088 H 0.0 **** 0.06
32938 H 111.13039964505396 132.14634962389505 3.2382622768770517 H 0.0 **** 0.06
32939 H 111.79004479793264 130.71269006932084 4.061604278042282 H 0.0 **** 0.06
32940 H 112.78575599718761 131.5960937475221 2.8796979130570506 H 0.0 **** 0.06
32941 C 7.661838026885576 52.728318649395135 123.93857914860811 C 0.0 **** -0.24
32942 H 8.583141854663687 52.48485793431661 124.46953430189015 H 0.0 **** 0.06
32943 H 7.8218586264660885 53.61194695435326 123.32014108956221 H 0.0 **** 0.06
32944 H 6.869629206450647 52.928016898377294 124.6600311396775 H 0.0 **** 0.06
32945 H 7.3744648414435545 51.88826126170842 123.30599837741974 H 0.0 **** 0.06
32946 C 58.904018473924424 48.96771291575544 95.17275597089227 C 0.0 **** -0.24
32947 H 58.64483900049157 49.395652045617595 96.14028748965336 H 0.0 **** 0.06
32948 H 59.72059548004529 48.25666210594723 95.29710996984849 H 0.0 **** 0.06
32949 H 59.21466089216099 49.76274970155865 94.49527905837144 H 0.0 **** 0.06
32950 H 58.035747117258865 48.45575630414733 94.75695254863453 H 0.0 **** 0.06
32951 C 114.58074002790059 83.21447393278429 165.86642122450388 C 0.0 **** -0.24
32952 H 113.78736837118785 83.52033638910495 166.5475318789721 H 0.0 **** 0.06
32953 H 114.14646479473504 82.92056184256144 164.9104751434294 H 0.0 **** 0.06
32954 H 115.12166745103013 82.36935957170081 166.2940583008601 H 0.0 **** 0.06
32955 H 115.26888772269132 84.04586695941057 165.7127118284671 H 0.0 **** 0.06
32956 C 62.17519588346653 28.176545636754824 23.561985773782965 C 0.0 **** -0.24
32957 H 62.99093570462048 28.79438573526778 23.186271323801407 H 0.0 **** 0.06
32958 H 61.22286989841682 28.595811021009254 23.239317360314033 H 0.0 **** 0.06
32959 H 62.2112125216543 28.150413353149574 24.65091831568691 H 0.0 **** 0.06
32960 H 62.277614982417106 27.16396773818748 23.17150079642613 H 0.0 **** 0.06
32961 C 45.12645800254393 31.13187125421696 135.66590198530733 C 0.0 **** -0.24
32962 H 45.76198733405255 30.39328167625247 136.15323457778385 H 0.0 **** 0.06
32963 H 45.61496685511702 32.105870760275366 135.6935650939345 H 0.0 **** 0.06
32964 H 44.17092161688737 31.189958420291703 136.18876652758317 H 0.0 **** 0.06
32965 H 44.95622011681411 30.83788157452014 134.63063859380804 H 0.0 **** 0.06
32966 C 43.62489272468889 70.77495414367075 76.69917601221643 C 0.0 **** -0.24
32967 H 43.53637857400054 70.94532654805863 75.62671079395474 H 0.0 **** 0.06
32968 H 42.95360594416215 71.44978695273097 77.23060985828978 H 0.0 **** 0.06
32969 H 44.65232260463999 70.96283337392784 77.0123268480577 H 0.0 **** 0.06
32970 H 43.35904004829537 69.74322727073616 76.92701185149691 H 0.0 **** 0.06
32971 C 151.45829281601962 103.80995069898606 67.20076352909064 C 0.0 **** -0.24
32972 H 152.2016095420386 103.1395657406145 66.77052358695181 H 0.0 **** 0.06
32973 H 151.15372146375626 103.43604940079419 68.17852234848147 H 0.0 **** 0.06
32974 H 150.58956013667571 103.85864605770905 66.5437601073503 H 0.0 **** 0.06
32975 H 151.88737853364276 104.80595520168464 67.31037495184461 H 0.0 **** 0.06
32976 C 1.2793400872724305 60.922499053916 39.68547060417461 C 0.0 **** -0.24
32977 H 0.7189568547043805 59.98777346841746 39.68409675795262 H 0.0 **** 0.06
32978 H 0.7179728411937205 61.68264305433263 39.14085685179246 H 0.0 **** 0.06
32979 H 2.2452891369472354 60.76812378482407 39.203563016268404 H 0.0 **** 0.06
32980 H 1.4342535004248873 61.251850622528764 40.71312987470799 H 0.0 **** 0.06
32981 C 33.96152042982209 17.32642106688327 31.037536087044543 C 0.0 **** -0.24
32982 H 34.12538463924591 16.258566981324066 30.892655587020286 H 0.0 **** 0.06
32983 H 34.746311202244726 17.88710930773629 30.529040909512076 H 0.0 **** 0.06
32984 H 33.9836229375731 17.555542810554748 32.10363032816973 H 0.0 **** 0.06
32985 H 32.9907364911021 17.60407713214626 30.62701953808609 H 0.0 **** 0.06
32986 C 24.884138851070915 93.49981143423722 119.38532142858108 C 0.0 **** -0.24
32987 H 24.442050374595617 93.03177849498414 120.26543855698611 H 0.0 **** 0.06
32988 H 24.091349211878217 93.83368329511339 118.71601032779787 H 0.0 **** 0.06
32989 H 25.516590587230823 92.77833440967694 118.86989749049445 H 0.0 **** 0.06
32990 H 25.485150322969865 94.35581672375281 119.69338369697147 H 0.0 **** 0.06
32991 C 103.58678524148866 55.165448418060464 6.589596579914883 C 0.0 **** -0.24
32992 H 102.68661624141546 54.62388486634137 6.8813668545628275 H 0.0 **** 0.06
32993 H 103.87558696887433 55.84719600656274 7.3898321613014275 H 0.0 **** 0.06
32994 H 103.38890915710479 55.733921097647226 5.68094040227038 H 0.0 **** 0.06
32995 H 104.39373046105348 54.45606578895729 6.405808971969719 H 0.0 **** 0.06
32996 C 154.17017896772072 83.71127058369228 23.489382590360975 C 0.0 **** -0.24
32997 H 154.71666008311644 84.64602262437063 23.61906770604378 H 0.0 **** 0.06
32998 H 153.1187320174121 83.87006713411404 23.73060898790868 H 0.0 **** 0.06
32999 H 154.58436063504325 82.95254226173398 24.152151795711717 H 0.0 **** 0.06
33000 H 154.25879533636686 83.37937277634774 22.45482994527606 H 0.0 **** 0.06
33001 C 108.59029413679372 17.386137696465084 157.88617228065493 C 0.0 **** -0.24
33002 H 107.70266578889749 17.185630158085416 157.2866934985471 H 0.0 **** 0.06
33003 H 109.36178816514035 16.65221217949596 157.649993264955 H 0.0 **** 0.06
33004 H 108.33619138814112 17.31945830014766 158.94438249435683 H 0.0 **** 0.06
33005 H 108.95936617896345 18.38670234172693 157.66420525211188 H 0.0 **** 0.06
33006 C 143.8522480217904 22.8761271577564 148.75146307863366 C 0.0 **** -0.24
33007 H 144.4800518525608 22.042303227883394 148.43530137296142 H 0.0 **** 0.06
33008 H 142.86245339486567 22.504686143260813 149.01795204718564 H 0.0 **** 0.06
33009 H 143.7642772520755 23.59461019135125 147.93714039657215 H 0.0 **** 0.06
33010 H 144.30382607371814 23.36128023503312 149.61739088640172 H 0.0 **** 0.06
33011 C 146.4713210765559 34.803928548788065 87.15351638728288 C 0.0 **** -0.24
33012 H 146.36386939636515 34.71552485437485 86.07238544649644 H 0.0 **** 0.06
33013 H 147.48529093334344 34.52713904735589 87.4415439474238 H 0.0 **** 0.06
33014 H 145.7586017426845 34.14059247269654 87.64444979554399 H 0.0 **** 0.06
33015 H 146.27617281425427 35.83407241315476 87.45354804035543 H 0.0 **** 0.06
33016 C 166.4131210545904 119.09347081221125 103.12560140031559 C 0.0 **** -0.24
33017 H 165.62924688303343 118.48554693323743 103.57635632334407 H 0.0 **** 0.06
33018 H 165.9621727828209 119.84506883231879 102.47770306319273 H 0.0 **** 0.06
33019 H 167.07467623977197 118.45640715944629 102.53788901581748 H 0.0 **** 0.06
33020 H 166.98715459781272 119.58656787802695 103.9110293095238 H 0.0 **** 0.06
33021 C 101.1024283727242 88.96425334328052 150.99136898244583 C 0.0 **** -0.24
33022 H 101.99838410882018 88.73390137301556 150.4150006359127 H 0.0 **** 0.06
33023 H 101.3574778784793 89.03008538011716 152.04975223923284 H 0.0 **** 0.06
33024 H 100.36399564227389 88.17557523686241 150.84428344544568 H 0.0 **** 0.06
33025 H 100.68883033231663 89.91555307698229 150.65702686015834 H 0.0 **** 0.06
33026 C 92.86390653559494 44.10474585698324 149.62835803229996 C 0.0 **** -0.24
33027 H 92.78619905185593 45.166242965080926 149.39381035313824 H 0.0 **** 0.06
33028 H 92.15787039892592 43.85679347541725 150.42182814262793 H 0.0 **** 0.06
33029 H 93.87726358829809 43.87931458872751 149.95991104330605 H 0.0 **** 0.06
33030 H 92.63229302062558 43.51812808692944 148.74028319863794 H 0.0 **** 0.06
33031 C 88.97705894999109 131.00293911037068 132.43622122012516 C 0.0 **** -0.24
33032 H 88.62097119758612 130.37815282816766 133.25528580668822 H 0.0 **** 0.06
33033 H 90.06331432423929 131.08007640806596 132.48373212198516 H 0.0 **** 0.06
33034 H 88.53857007210365 131.99822164212074 132.52187417957128 H 0.0 **** 0.06
33035 H 88.68495000259618 130.5583676223368 131.48584724833296 H 0.0 **** 0.06
33036 C 79.54307535788831 76.2912425551534 133.2213722374839 C 0.0 **** -0.24
33037 H 79.09714304871406 76.70723645585808 132.31736136129345 H 0.0 **** 0.06
33038 H 80.44969253333664 76.84553733111153 133.46701796546674 H 0.0 **** 0.06
33039 H 79.79132118211463 75.24374176097763 133.05394091166156 H 0.0 **** 0.06
33040 H 78.83447810747793 76.3699571747045 134.0452630691226 H 0.0 **** 0.06
33041 C 36.61115430441896 146.5706471160539 82.54496843762625 C 0.0 **** -0.24
33042 H 36.73364620632816 147.152443064689 81.6323527767838 H 0.0 **** 0.06
33043 H 36.926841416594286 147.16736217395967 83.40133284568961 H 0.0 **** 0.06
33044 H 37.22114282139461 145.66874832539762 82.48521232629149 H 0.0 **** 0.06
33045 H 35.56387473497851 146.29326810113471 82.66176548475663 H 0.0 **** 0.06
33046 C 114.88985668787754 23.917002282830758 47.774135104182136 C 0.0 **** -0.24
33047 H 115.1259339757226 24.941334726171945 48.06213118039969 H 0.0 **** 0.06
33048 H 113.82987377589444 23.728196987149467 47.94388483029141 H 0.0 **** 0.06
33049 H 115.4839350609696 23.22581741603281 48.372353762807094 H 0.0 **** 0.06
33050 H 115.12049403888238 23.77473967036378 46.71830796433055 H 0.0 **** 0.06
33051 C 63.312446311311135 94.97688471246636 124.92837221006954 C 0.0 **** -0.24
33052 H 63.83560173850452 94.10581519285412 125.32354874077959 H 0.0 **** 0.06
33053 H 64.03382543723882 95.66500561094301 124.4874266610926 H 0.0 **** 0.06
33054 H 62.778245703194955 95.47744961453009 125.73554236323454 H 0.0 **** 0.06
33055 H 62.602472967145616 94.6574297246849 124.16575072120526 H 0.0 **** 0.06
33056 C 130.47553615289056 98.00630300521885 170.913222694677 C 0.0 **** -0.24
33057 H 130.4962749304528 97.92286525036462 169.8267213265714 H 0.0 **** 0.06
33058 H 131.47319451818177 98.25446482565002 171.2773761259315 H 0.0 **** 0.06
33059 H 130.1571566988748 97.05716901041853 171.34420223517776 H 0.0 **** 0.06
33060 H 129.77588857536065 98.78978723899837 171.2045127743815 H 0.0 **** 0.06
33061 C 97.65588924477154 42.586018658315254 29.0229167147248 C 0.0 **** -0.24
33062 H 98.08785344940921 42.523504474162564 30.022329603334242 H 0.0 **** 0.06
33063 H 98.2015523927941 41.922916200429995 28.350102400854325 H 0.0 **** 0.06
33064 H 97.72688650501564 43.61111414804908 28.66066572076474 H 0.0 **** 0.06
33065 H 96.60970251130851 42.2842626832542 29.060263780173756 H 0.0 **** 0.06
33066 C 13.98825359263617 32.38728950737294 101.15416347770403 C 0.0 **** -0.24
33067 H 13.14639037311781 32.87477819092777 100.66053270227593 H 0.0 **** 0.06
33068 H 13.796414001734433 32.33007002119331 102.22580226829533 H 0.0 **** 0.06
33069 H 14.89600755812313 32.96361067158165 100.97658018011794 H 0.0 **** 0.06
33070 H 14.11174961062045 31.38175098060688 100.75236852844498 H 0.0 **** 0.06
33071 C 172.22784174920417 145.93901930822338 162.86272483802253 C 0.0 **** -0.24
33072 H 172.62464411122392 146.85481693769148 162.42418432424284 H 0.0 **** 0.06
33073 H 172.00849282688992 146.10791809639235 163.91678243739818 H 0.0 **** 0.06
33074 H 172.96463173405743 145.1424438828565 162.76777618038517 H 0.0 **** 0.06
33075 H 171.31431189655956 145.65361457899888 162.34182032429482 H 0.0 **** 0.06
33076 C 0.10856231525251303 95.22973347554057 153.33464707675097 C 0.0 **** -0.24
33077 H -0.08634702462283173 95.83165358216002 152.44707188609507 H 0.0 **** 0.06
33078 H -0.3820309142633391 95.68360707688072 154.19578076315335 H 0.0 **** 0.06
33079 H 1.1831841494936128 95.18259552281461 153.5111920132074 H 0.0 **** 0.06
33080 H -0.2791612938123649 94.22306115595435 153.18251425861098 H 0.0 **** 0.06
33081 C 166.6199489573108 93.59983618117087 145.83558130404822 C 0.0 **** -0.24
33082 H 166.47259050424066 93.01266817945427 144.92895601276257 H 0.0 **** 0.06
33083 H 166.74030993428187 94.65166007258375 145.57187316080768 H 0.0 **** 0.06
33084 H 167.51353371651481 93.2510124858124 146.3530651093466 H 0.0 **** 0.06
33085 H 165.7546745892236 93.48573383826275 146.48789800941066 H 0.0 **** 0.06
33086 C 21.43578894964736 95.52861644064117 82.03472210449874 C 0.0 **** -0.24
33087 H 22.21282240135656 95.09827403964928 81.40187800365646 H 0.0 **** 0.06
33088 H 21.898419740820287 96.05812630784547 82.86766042104558 H 0.0 **** 0.06
33089 H 20.797828448828 94.73215288765155 82.41801624433484 H 0.0 **** 0.06
33090 H 20.835949348867587 96.22502362376224 81.44940112094845 H 0.0 **** 0.06
33091 C 90.90981114749701 152.93228106705527 65.91076936135981 C 0.0 **** -0.24
33092 H 91.63971570028406 152.79659658057062 66.70812261844596 H 0.0 **** 0.06
33093 H 91.01821114736714 153.9300086739352 65.48447454452551 H 0.0 **** 0.06
33094 H 89.90422425308265 152.8159999513997 66.31511066295381 H 0.0 **** 0.06
33095 H 91.07681274489175 152.18437339129693 65.13480622077289 H 0.0 **** 0.06
33096 C 52.1478343085671 123.4112860348148 132.0210519582003 C 0.0 **** -0.24
33097 H 51.50128053467209 124.22007471212277 131.68059303644935 H 0.0 **** 0.06
33098 H 52.79189221226058 123.09162346103753 131.20193265284325 H 0.0 **** 0.06
33099 H 51.536147247377286 122.5722087217519 132.35240884176977 H 0.0 **** 0.06
33100 H 52.762467179928265 123.76197016628078 132.85077678544596 H 0.0 **** 0.06
33101 C 106.37393303159666 125.52292582427893 57.26028418248529 C 0.0 **** -0.24
33102 H 105.8160447367305 126.39609722737819 57.60091680107939 H 0.0 **** 0.06
33103 H 105.67774156490617 124.72726665327187 56.99747232075043 H 0.0 **** 0.06
33104 H 107.03563518067111 125.18162742271059 58.05652275124186 H 0.0 **** 0.06
33105 H 106.96741414808233 125.7916683181621 56.385758109062124 H 0.0 **** 0.06
33106 C 170.587277081009 139.78475037143073 162.4047659264938 C 0.0 **** -0.24
33107 H 171.58151133502759 139.9662650008229 162.81275841051297 H 0.0 **** 0.06
33108 H 170.57963749082853 138.82887020738133 161.8799860076966 H 0.0 **** 0.06
33109 H 170.3284320386727 140.58291836643286 161.71042074766652 H 0.0 **** 0.06
33110 H 169.8601924699101 139.75872199358133 163.21667521249984 H 0.0 **** 0.06
33111 C 97.79985604472247 38.575609792313585 12.100650759153382 C 0.0 **** -0.24
33112 H 97.40378586070796 39.56242382566384 12.338853695136606 H 0.0 **** 0.06
33113 H 97.01086984047535 37.96323438414508 11.664202238866721 H 0.0 **** 0.06
33114 H 98.16535561535648 38.101478468004586 13.011558403940171 H 0.0 **** 0.06
33115 H 98.61894338914223 38.67415956620994 11.388676719518344 H 0.0 **** 0.06
33116 C 77.97055113728452 100.75955208582147 35.07461140381673 C 0.0 **** -0.24
33117 H 78.34080153015702 101.72885640357853 34.738507233858456 H 0.0 **** 0.06
33118 H 76.96270606860391 100.87460704995152 35.47386053129469 H 0.0 **** 0.06
33119 H 78.62782354751819 100.36854735045696 35.85126606335058 H 0.0 **** 0.06
33120 H 77.950985936374 100.06700775517149 34.2325028792209 H 0.0 **** 0.06
33121 C 1.139511619448058 1.2527619330835194 77.02642582597673 C 0.0 **** -0.24
33122 H 1.9769644063813416 0.8572235913539714 76.45290128774565 H 0.0 **** 0.06
33123 H 0.5659939158453824 0.427318681949032 77.44772863713246 H 0.0 **** 0.06
33124 H 0.4994908304291812 1.8448614556340601 76.37266614819964 H 0.0 **** 0.06
33125 H 1.5172363850138595 1.8821978262322432 77.83232448554696 H 0.0 **** 0.06
33126 C 146.2794621467218 108.87978323872 164.41267940607776 C 0.0 **** -0.24
33127 H 146.25331196042936 108.95090439051853 163.32514083427992 H 0.0 **** 0.06
33128 H 145.82285754765252 109.76925609390898 164.84587386910226 H 0.0 **** 0.06
33129 H 147.31517066402074 108.80332484415294 164.745271040845 H 0.0 **** 0.06
33130 H 145.72910335457203 107.9941893369658 164.73216470766738 H 0.0 **** 0.06
33131 C 62.93204895831002 169.8439894244445 85.4643702311111 C 0.0 **** -0.24
33132 H 62.20523253425711 169.9087082796897 86.27511839602289 H 0.0 **** 0.06
33133 H 63.448807606242326 170.79780475896973 85.36343479932538 H 0.0 **** 0.06
33134 H 62.41614744065765 169.6090456838662 84.53320630531078 H 0.0 **** 0.06
33135 H 63.65528146726706 169.06006895292109 85.68728858974504 H 0.0 **** 0.06
33136 C 36.28889600149256 159.1041899682209 84.52276659938072 C 0.0 **** -0.24
33137 H 37.29432015848795 159.52595056559295 84.53098050799977 H 0.0 **** 0.06
33138 H 35.909992572901444 159.0896332574161 83.50036183285867 H 0.0 **** 0.06
33139 H 35.63451720877407 159.7145588266356 85.14508519596261 H 0.0 **** 0.06
33140 H 36.319388969026306 158.087432927041 84.91401265324015 H 0.0 **** 0.06
33141 C 160.782195858069 28.316353921014695 18.412536813024843 C 0.0 **** -0.24
33142 H 159.72290020851324 28.30706507294616 18.671180693177917 H 0.0 **** 0.06
33143 H 160.9307288053983 28.91160728461074 17.511512071198837 H 0.0 **** 0.06
33144 H 161.12118580154262 27.29620312140338 18.235225447880964 H 0.0 **** 0.06
33145 H 161.35235605942472 28.751433613624357 19.233842002159236 H 0.0 **** 0.06
33146 C 117.70527715651426 50.889614229932306 29.87098493660568 C 0.0 **** -0.24
33147 H 117.77545768192462 51.13270884323266 28.810499244503006 H 0.0 **** 0.06
33148 H 116.76216049019789 50.37869598473084 30.064976396418785 H 0.0 **** 0.06
33149 H 117.74954227801652 51.80682230049284 30.45761609736141 H 0.0 **** 0.06
33150 H 118.53542923104106 50.239310837102366 30.149447244557365 H 0.0 **** 0.06
33151 C 153.2797758822623 83.27255343938184 116.84132621993456 C 0.0 **** -0.24
33152 H 153.5156332632308 83.85423891189495 115.95049936989429 H 0.0 **** 0.06
33153 H 152.54457543246525 83.81007589354296 117.44125715782206 H 0.0 **** 0.06
33154 H 154.1859803081199 83.12087638565947 117.42660799621919 H 0.0 **** 0.06
33155 H 152.87099543955625 82.30597655265494 116.54575410623411 H 0.0 **** 0.06
33156 C 138.2326546999056 120.34431877558387 166.94922724768327 C 0.0 **** -0.24
33157 H 138.47333765228623 121.38494530137942 166.7304228780891 H 0.0 **** 0.06
33158 H 137.24604311416604 120.1079184235505 166.55097653323315 H 0.0 **** 0.06
33159 H 138.2350494251575 120.19038130159436 168.02894977849195 H 0.0 **** 0.06
33160 H 138.97624034374437 119.69456575085286 166.48873017308125 H 0.0 **** 0.06
33161 C 20.063418796866586 103.13547826303434 146.1165406058215 C 0.0 **** -0.24
33162 H 19.625232525244996 102.15236891333191 145.93834957557104 H 0.0 **** 0.06
33163 H 19.28754448860832 103.82110734267724 146.4584441478866 H 0.0 **** 0.06
33164 H 20.500134055496943 103.51119787876652 145.1911121948364 H 0.0 **** 0.06
33165 H 20.839062601914833 103.05439385458695 146.87836027240675 H 0.0 **** 0.06
33166 C 162.29446698181448 48.15660649493725 25.04178361110337 C 0.0 **** -0.24
33167 H 161.62935623731514 47.29874716035664 24.944540437409735 H 0.0 **** 0.06
33168 H 163.22101234862424 47.95877652091178 24.50276397195313 H 0.0 **** 0.06
33169 H 162.51589146315968 48.32638877946488 26.09572828486447 H 0.0 **** 0.06
33170 H 161.8118512845007 49.0395300541615 24.62430160564464 H 0.0 **** 0.06
33171 C 49.72110250362786 99.69171495219678 117.63036635127236 C 0.0 **** -0.24
33172 H 50.18324070466858 100.18763761545551 116.77673400481106 H 0.0 **** 0.06
33173 H 48.652742985039026 99.57668356419956 117.44952696900384 H 0.0 **** 0.06
33174 H 49.876549511749616 100.2923333858491 118.52684051317635 H 0.0 **** 0.06
33175 H 50.174237296544504 98.70986176862402 117.76892097325006 H 0.0 **** 0.06
33176 C 6.219038131045522 3.564554233687659 36.142213067361695 C 0.0 **** -0.24
33177 H 7.131094933707288 4.1018918709743275 36.40306523207653 H 0.0 **** 0.06
33178 H 6.4777978861355905 2.6416889150577845 35.624397327333554 H 0.0 **** 0.06
33179 H 5.604940625728489 4.1868243143521795 35.491689916877874 H 0.0 **** 0.06
33180 H 5.664009055619658 3.329364891833734 37.05055545536095 H 0.0 **** 0.06
33181 C 64.1401777344716 96.54697774313951 33.891626999088885 C 0.0 **** -0.24
33182 H 64.10399658160019 97.01584998736797 34.87472257659488 H 0.0 **** 0.06
33183 H 64.33846403093116 95.48057133107002 34.00479558447904 H 0.0 **** 0.06
33184 H 64.93291483866255 97.00373014536348 33.29952540410747 H 0.0 **** 0.06
33185 H 63.18362509717774 96.68749579098 33.387392985825926 H 0.0 **** 0.06
33186 C 51.81092720005623 21.27190483100386 115.21203462666594 C 0.0 **** -0.24
33187 H 50.76552099587276 21.14995421367788 114.92716953171688 H 0.0 **** 0.06
33188 H 51.88003766418288 21.967664035275135 116.04788033101286 H 0.0 **** 0.06
33189 H 52.37339391861087 21.664079118758806 114.36460515511686 H 0.0 **** 0.06
33190 H 52.22212774184153 20.306773821888356 115.50526387359542 H 0.0 **** 0.06
33191 C 71.22816773774767 132.961287169282 8.747065041391721 C 0.0 **** -0.24
33192 H 70.95588644134853 132.2992682223587 9.57015011845246 H 0.0 **** 0.06
33193 H 71.82922349881005 132.41061147256517 8.02305782402604 H 0.0 **** 0.06
33194 H 71.80264242375438 133.8029610956542 9.13282921548722 H 0.0 **** 0.06
33195 H 70.32376376499371 133.32967834591773 8.26309027538312 H 0.0 **** 0.06
33196 C 102.31421570868577 44.61470226199128 28.431347176280553 C 0.0 **** -0.24
33197 H 101.80316773701134 43.84982378387474 27.84724953959855 H 0.0 **** 0.06
33198 H 101.93286886971703 45.59796635024691 28.153265269327278 H 0.0 **** 0.06
33199 H 103.38434864748055 44.569688611440625 28.231046332433635 H 0.0 **** 0.06
33200 H 102.13415678722674 44.441853874534615 29.491999985574523 H 0.0 **** 0.06
33201 C 1.8517278668890924 59.11705467863379 103.06477188396354 C 0.0 **** -0.24
33202 H 0.7704250153136627 58.98855256260049 103.11490708388015 H 0.0 **** 0.06
33203 H 2.1378621394819675 59.391179580413876 102.04892646008261 H 0.0 **** 0.06
33204 H 2.342214309586666 58.18294907621498 103.34024236068285 H 0.0 **** 0.06
33205 H 2.156825379909236 59.90384555829519 103.75360986411695 H 0.0 **** 0.06
33206 C 121.19831518318051 42.70096885891036 126.44613568316046 C 0.0 **** -0.24
33207 H 121.68641635320111 42.476690629093326 125.49761540812594 H 0.0 **** 0.06
33208 H 121.2051367056716 43.77789728298504 126.6126403548752 H 0.0 **** 0.06
33209 H 121.73386176412049 42.204317776421476 127.25593490451001 H 0.0 **** 0.06
33210 H 120.16847652507644 42.34337526394151 126.41859707820049 H 0.0 **** 0.06
33211 C 18.403769807143476 170.794946220058 16.90569906219787 C 0.0 **** -0.24
33212 H 17.851616753982228 170.94272504554294 17.83415403011719 H 0.0 **** 0.06
33213 H 18.190143700041062 169.8011842816861 16.51117871801847 H 0.0 **** 0.06
33214 H 19.472889139359722 170.88741295763714 17.100278038306016 H 0.0 **** 0.06
33215 H 18.100166053375375 171.54815081008633 16.178098338298526 H 0.0 **** 0.06
33216 C 59.61229077656955 54.62707997831383 96.24035935882677 C 0.0 **** -0.24
33217 H 60.28817617913727 55.14163730727181 95.55764649734704 H 0.0 **** 0.06
33218 H 58.80736793933467 55.3027320693206 96.53310791827221 H 0.0 **** 0.06
33219 H 60.163049722373785 54.31246614001235 97.12732831393424 H 0.0 **** 0.06
33220 H 59.19068124279704 53.75299855930807 95.74465658295341 H 0.0 **** 0.06
33221 C 84.42771665363739 124.4339747439831 112.4425836932104 C 0.0 **** -0.24
33222 H 83.60952235235601 124.3296066375577 113.15521092443109 H 0.0 **** 0.06
33223 H 84.13089002255674 124.00626118503831 111.4853798357496 H 0.0 **** 0.06
33224 H 85.30609622087479 123.91124197335287 112.81901818514211 H 0.0 **** 0.06
33225 H 84.66155128710318 125.49033078037621 112.31158955946606 H 0.0 **** 0.06
33226 C 117.25789661950205 12.058691987613514 128.3454341588038 C 0.0 **** -0.24
33227 H 116.97299481351229 13.108265720382292 128.2686738748675 H 0.0 **** 0.06
33228 H 117.83367150476971 11.77441949996944 127.46423347794615 H 0.0 **** 0.06
33229 H 116.36088708094343 11.442807503390611 128.40887208897612 H 0.0 **** 0.06
33230 H 117.8646099183801 11.911914505411687 129.23911952554482 H 0.0 **** 0.06
33231 C 8.158751050855301 168.50691066360508 93.30414992801275 C 0.0 **** -0.24
33232 H 8.515927761135174 169.26664609192454 92.60810604026824 H 0.0 **** 0.06
33233 H 8.744374576110147 167.59597123295788 93.17792535822332 H 0.0 **** 0.06
33234 H 7.109221699513796 168.29503748403732 93.10214978831846 H 0.0 **** 0.06
33235 H 8.266992195728392 168.87061571525544 94.32520606344565 H 0.0 **** 0.06
33236 C 33.069799305802235 31.427112652013022 7.9235726728418 C 0.0 **** -0.24
33237 H 33.912151251255096 31.30075696678051 8.604730998660557 H 0.0 **** 0.06
33238 H 33.18269716901213 32.36268984826842 7.376207570770077 H 0.0 **** 0.06
33239 H 32.14152872465303 31.44955747192779 8.495562339213933 H 0.0 **** 0.06
33240 H 33.04348205731952 30.594374691864573 7.2203222949242445 H 0.0 **** 0.06
33241 C 154.40169722436445 67.88486574239019 1.6927302559392388 C 0.0 **** -0.24
33242 H 155.13477609988786 68.13962147632628 0.9279446401228881 H 0.0 **** 0.06
33243 H 153.52805032117004 67.43446360070317 1.2220093481218441 H 0.0 **** 0.06
33244 H 154.1035222334691 68.78758399085726 2.2256585961976896 H 0.0 **** 0.06
33245 H 154.84219354709487 67.17615243859193 2.3957897822782854 H 0.0 **** 0.06
33246 C 110.03023982506923 61.66442439893905 124.4946378062744 C 0.0 **** -0.24
33247 H 110.59969329199828 62.26509737412516 123.78530226169485 H 0.0 **** 0.06
33248 H 110.69636672872116 61.29775708241817 125.2767869373306 H 0.0 **** 0.06
33249 H 109.58010454848693 60.81797934027668 123.9746952925542 H 0.0 **** 0.06
33250 H 109.24645155203879 62.27521605866809 124.9410318431315 H 0.0 **** 0.06
33251 C 42.3654944446634 3.3982995525668684 35.968429163515566 C 0.0 **** -0.24
33252 H 41.94417706448786 2.7837368418441883 35.17349552025172 H 0.0 **** 0.06
33253 H 41.56941561680895 3.71881315787806 36.64090944602634 H 0.0 **** 0.06
33254 H 42.84977624895464 4.272380706985928 35.533688506339274 H 0.0 **** 0.06
33255 H 43.09926515026308 2.8161858334413523 36.526734975031076 H 0.0 **** 0.06
33256 C 10.510926251766733 49.97848410763048 40.88016931531203 C 0.0 **** -0.24
33257 H 11.01560377501059 50.026041110335726 41.84555583749915 H 0.0 **** 0.06
33258 H 9.64113203292186 49.326256924485094 40.95816868273519 H 0.0 **** 0.06
33259 H 11.196726234996845 49.581482818820206 40.132301331933604 H 0.0 **** 0.06
33260 H 10.191191650735078 50.97845499155116 40.586933569167286 H 0.0 **** 0.06
33261 C 69.70131926906222 25.633178326170622 161.97778391575304 C 0.0 **** -0.24
33262 H 70.13734211755911 24.802190553627668 162.53186113968624 H 0.0 **** 0.06
33263 H 69.91086597361192 26.567691017074026 162.49885820224176 H 0.0 **** 0.06
33264 H 68.62257701562692 25.492368200051402 161.90261162244045 H 0.0 **** 0.06
33265 H 70.13392757889925 25.668339293834606 160.97821604641004 H 0.0 **** 0.06
33266 C 163.1706861338898 16.344990103439102 88.9248986729052 C 0.0 **** -0.24
33267 H 163.35499699847745 16.093089643390613 87.88075795637354 H 0.0 **** 0.06
33268 H 162.1371715559351 16.669469490353066 89.0442088471517 H 0.0 **** 0.06
33269 H 163.8411383282834 17.149423611085325 89.22766389045584 H 0.0 **** 0.06
33270 H 163.35113075422655 15.468335941239559 89.54703563923805 H 0.0 **** 0.06
33271 C 99.56420042560268 101.52167939337224 142.82826332826627 C 0.0 **** -0.24
33272 H 99.62355622731667 101.84905464729181 143.8662780289761 H 0.0 **** 0.06
33273 H 98.90037488413907 100.6586988344155 142.7575989499293 H 0.0 **** 0.06
33274 H 100.5588783319225 101.24505000116307 142.4774539050174 H 0.0 **** 0.06
33275 H 99.17375269068143 102.33202745625883 142.21289859131528 H 0.0 **** 0.06
33276 C 36.18585165623014 9.054682612013494 51.93257029519836 C 0.0 **** -0.24
33277 H 35.47104401541732 8.251618272676723 51.75261504366733 H 0.0 **** 0.06
33278 H 35.71451567984789 9.83332488276804 52.531462413152624 H 0.0 **** 0.06
33279 H 36.508550956747285 9.473954682334607 50.979059254058214 H 0.0 **** 0.06
33280 H 37.0506420677241 8.659259363096453 52.4662173775713 H 0.0 **** 0.06
33281 C 64.85639019145817 89.57817972484354 88.87498299888824 C 0.0 **** -0.24
33282 H 64.72560006337524 88.75922794893276 89.58076841614985 H 0.0 **** 0.06
33283 H 65.91630713528689 89.69403463319765 88.64524632365925 H 0.0 **** 0.06
33284 H 64.47699792820804 90.5012899044179 89.31346595015754 H 0.0 **** 0.06
33285 H 64.3074908332532 89.35973734524174 87.9587676222929 H 0.0 **** 0.06
33286 C 100.89835829249205 140.78600853647356 138.44595474035867 C 0.0 **** -0.24
33287 H 100.26721029689247 140.4656309689547 139.2752391449211 H 0.0 **** 0.06
33288 H 100.6284714421567 141.8012653857254 138.1559033789352 H 0.0 **** 0.06
33289 H 100.75247479883433 140.11490524435385 137.5993181167389 H 0.0 **** 0.06
33290 H 101.94354014758437 140.76124733247164 138.75347700494297 H 0.0 **** 0.06
33291 C 116.8459172084699 13.918704241850136 67.1790352481345 C 0.0 **** -0.24
33292 H 116.44221943588994 13.810698641484699 66.1723967431629 H 0.0 **** 0.06
33293 H 117.62847163915151 14.678493159056906 67.17610380331739 H 0.0 **** 0.06
33294 H 117.26508941153409 12.967104995899298 67.50602871323956 H 0.0 **** 0.06
33295 H 116.0494620951888 14.218850633171641 67.85976395579867 H 0.0 **** 0.06
33296 C 164.0542769766899 126.65254542449006 112.82735149331609 C 0.0 **** -0.24
33297 H 164.39093043317195 126.4254355675028 113.8382737029442 H 0.0 **** 0.06
33298 H 163.52674423310162 127.60661453814174 112.82547316475552 H 0.0 **** 0.06
33299 H 163.38335755529576 125.8645101042047 112.48337520532937 H 0.0 **** 0.06
33300 H 164.9159438654807 126.71079609672353 112.16228065559233 H 0.0 **** 0.06
33301 C 55.97323863678166 2.8212405988290854 37.36819293933547 C 0.0 **** -0.24
33302 H 55.91786923470163 2.3762861042056116 36.37537277734745 H 0.0 **** 0.06
33303 H 55.02593004683001 2.6702865410319134 37.88709421144128 H 0.0 **** 0.06
33304 H 56.171592766075676 3.8885736459915847 37.2780655253361 H 0.0 **** 0.06
33305 H 56.77570068395522 2.3480648128553128 37.933809871503286 H 0.0 **** 0.06
33306 C 132.76204101401993 117.1240534823379 113.74162928487414 C 0.0 **** -0.24
33307 H 132.03316706791233 117.79575241833706 113.28883189398428 H 0.0 **** 0.06
33308 H 132.28392244662575 116.55253529062631 114.53750414456533 H 0.0 **** 0.06
33309 H 133.58486871442298 117.70620783781348 114.15669322013204 H 0.0 **** 0.06
33310 H 133.14683994003406 116.44104842374409 112.98387399466836 H 0.0 **** 0.06
33311 C 70.10648975202594 67.71540186468482 114.81503805721903 C 0.0 **** -0.24
33312 H 70.93583876068604 67.71741024980719 114.10787939927323 H 0.0 **** 0.06
33313 H 70.4021663482143 68.24006005384128 115.72391172165428 H 0.0 **** 0.06
33314 H 69.8407466800436 66.6865757472043 115.05945705277952 H 0.0 **** 0.06
33315 H 69.24700959211201 68.21559391023106 114.36920406892489 H 0.0 **** 0.06
33316 C 136.93265033935958 116.84474377397527 172.0280377751012 C 0.0 **** -0.24
33317 H 135.96293050135628 116.63978684893942 171.57422472385406 H 0.0 **** 0.06
33318 H 136.81298598775214 116.95880324342926 173.10557110354688 H 0.0 **** 0.06
33319 H 137.34219696961594 117.76386602227745 171.60842241671918 H 0.0 **** 0.06
33320 H 137.61145661457203 116.0173051348873 171.82336852362653 H 0.0 **** 0.06
33321 C 131.31846665891828 22.800736421278543 92.37435233100072 C 0.0 **** -0.24
33322 H 130.25604029785708 22.76160532388053 92.61325429558784 H 0.0 **** 0.06
33323 H 131.4835106210491 22.375256359431546 91.38354637386583 H 0.0 **** 0.06
33324 H 131.87875767938607 22.22863074451783 93.11292203881288 H 0.0 **** 0.06
33325 H 131.65512627732443 23.83747718897706 92.38489139946847 H 0.0 **** 0.06
33326 C 91.85098230832818 80.39810910951297 171.5092547281501 C 0.0 **** -0.24
33327 H 92.56244713965458 80.8833355700614 170.84041073641794 H 0.0 **** 0.06
33328 H 91.10550417599296 81.12381044646025 171.8341841124468 H 0.0 **** 0.06
33329 H 92.3805107535999 80.00573022548792 172.3776115848015 H 0.0 **** 0.06
33330 H 91.35890803762446 79.58009479886283 170.98387709019823 H 0.0 **** 0.06
33331 C 138.2761898174258 125.97097602050704 69.2080855380833 C 0.0 **** -0.24
33332 H 137.8612464741762 125.01860608231206 69.53677944319402 H 0.0 **** 0.06
33333 H 137.46722831975114 126.6247628715864 68.88003177420306 H 0.0 **** 0.06
33334 H 138.96452502723406 125.80197333103263 68.38063470251011 H 0.0 **** 0.06
33335 H 138.8094459030005 126.43935743682434 70.03501719541012 H 0.0 **** 0.06
33336 C 52.99965090589728 102.37788144143545 52.901993787173126 C 0.0 **** -0.24
33337 H 52.62439995804098 103.39685616711301 52.800818421179855 H 0.0 **** 0.06
33338 H 52.55056533533997 101.9116640660713 53.7798666360455 H 0.0 **** 0.06
33339 H 54.083418143324224 102.39956986380665 53.01617509573133 H 0.0 **** 0.06
33340 H 52.73848329432164 101.80434616460053 52.01258277266912 H 0.0 **** 0.06
33341 C 101.49119599792957 38.03174396317374 107.41589511776297 C 0.0 **** -0.24
33342 H 102.02533237504758 38.67103725766485 108.11865225408272 H 0.0 **** 0.06
33343 H 101.83282860811181 38.23941067713888 106.40275503366973 H 0.0 **** 0.06
33344 H 100.42087743454991 38.229150844216136 107.48704934072526 H 0.0 **** 0.06
33345 H 101.68354548365085 36.98593337418315 107.65859887709209 H 0.0 **** 0.06
33346 C 122.12821278302289 162.02216023668888 168.5222116652625 C 0.0 **** -0.24
33347 H 122.1945305181676 161.00264865900579 168.14235342096285 H 0.0 **** 0.06
33348 H 121.81399512996401 162.6888519566218 167.7178587200183 H 0.0 **** 0.06
33349 H 123.10241420328688 162.3358987214281 168.89504258712452 H 0.0 **** 0.06
33350 H 121.3989800823509 162.06123292595012 169.33149232247956 H 0.0 **** 0.06
33351 C 39.15543509009791 18.539886300574892 69.92316759092523 C 0.0 **** -0.24
33352 H 39.546641496228986 18.296481561983697 70.91106579906551 H 0.0 **** 0.06
33353 H 39.5586244115013 19.499244019052796 69.59981436779731 H 0.0 **** 0.06
33354 H 38.06796939982438 18.598713747487203 69.96740429628093 H 0.0 **** 0.06
33355 H 39.4489056529176 17.764123960962472 69.21532154080143 H 0.0 **** 0.06
33356 C 139.5722404112388 4.7389823886312 132.74941752252454 C 0.0 **** -0.24
33357 H 139.4402121487149 5.0170546919109995 131.70385618385507 H 0.0 **** 0.06
33358 H 140.54594802522274 4.266182923469245 132.87882904191576 H 0.0 **** 0.06
33359 H 138.78697629317546 4.041883558760645 133.04120453522955 H 0.0 **** 0.06
33360 H 139.5157622563787 5.6315307439359685 133.37191637000052 H 0.0 **** 0.06
33361 C 143.88545606907468 60.066032379340186 80.60374864790697 C 0.0 **** -0.24
33362 H 143.86919749592394 59.142566266389366 80.0244722058093 H 0.0 **** 0.06
33363 H 143.43335715835687 59.88851604984805 81.58018540833397 H 0.0 **** 0.06
33364 H 143.32102692555438 60.835248913285824 80.07710281086341 H 0.0 **** 0.06
33365 H 144.9159151476103 60.39620512255499 80.73425621950908 H 0.0 **** 0.06
33366 C 169.5367646065201 139.15217145000364 60.25374827574221 C 0.0 **** -0.24
33367 H 168.490211834477 139.1168502719775 59.95072203676335 H 0.0 **** 0.06
33368 H 169.60064174593435 139.1458706490782 61.34118156330085 H 0.0 **** 0.06
33369 H 169.9966808517379 140.0618439882412 59.86648721315194 H 0.0 **** 0.06
33370 H 170.0592503155464 138.2828512354087 59.85355050621038 H 0.0 **** 0.06
33371 C 170.20145985050405 116.09373694168988 23.34509943362488 C 0.0 **** -0.24
33372 H 170.45347914268257 115.39420959798255 22.548138359350048 H 0.0 **** 0.06
33373 H 169.19327870961172 116.47701482649163 23.186688435889266 H 0.0 **** 0.06
33374 H 170.91119062807238 116.92107494921365 23.339785924743296 H 0.0 **** 0.06
33375 H 170.24781046702012 115.58020276563036 24.305897268970625 H 0.0 **** 0.06
33376 C 46.37358620605946 72.5246498163799 32.98180952459751 C 0.0 **** -0.24
33377 H 47.13036300889648 72.11921977381104 32.31097757224806 H 0.0 **** 0.06
33378 H 46.19913374209585 71.82240060977344 33.798159099261454 H 0.0 **** 0.06
33379 H 45.445917030986365 72.68054659624028 32.43162749480098 H 0.0 **** 0.06
33380 H 46.72025679624366 73.47520410355958 33.38812744730674 H 0.0 **** 0.06
33381 C 63.6203955903232 97.15020496873211 64.69520407729075 C 0.0 **** -0.24
33382 H 63.12062998868501 97.38563163775669 65.63481613065346 H 0.0 **** 0.06
33383 H 62.8922726420147 97.16084286929808 63.88400619868045 H 0.0 **** 0.06
33384 H 64.07469578004562 96.16240083191127 64.7634790634595 H 0.0 **** 0.06
33385 H 64.39369678558815 97.89353418309594 64.49913993002778 H 0.0 **** 0.06
33386 C 2.5317800370468646 127.57943160455 132.49267650186277 C 0.0 **** -0.24
33387 H 1.6018017679206835 127.23822067157357 132.03932270271275 H 0.0 **** 0.06
33388 H 3.2446714156917693 127.83770318620344 131.70861661823463 H 0.0 **** 0.06
33389 H 2.946183801114394 126.7851690542596 133.113036629347 H 0.0 **** 0.06
33390 H 2.334949266524063 128.456721740325 133.10886060533156 H 0.0 **** 0.06
33391 C 55.45837226334416 166.04974448932327 112.52048646512577 C 0.0 **** -0.24
33392 H 55.43018037916616 164.96015925621847 112.52113405780716 H 0.0 **** 0.06
33393 H 55.064013404061754 166.42296769899147 111.57500577842458 H 0.0 **** 0.06
33394 H 56.48783272922401 166.38620471759955 112.64475978637492 H 0.0 **** 0.06
33395 H 54.85100293224092 166.4282126967204 113.34269963610672 H 0.0 **** 0.06
33396 C 48.304021551287164 99.64285898683991 166.76213098154295 C 0.0 **** -0.24
33397 H 49.03945986576328 99.17943110125694 167.41874595890243 H 0.0 **** 0.06
33398 H 48.812948119676065 100.0997756130057 165.91263279631062 H 0.0 **** 0.06
33399 H 47.75651451123343 100.40725466004923 167.3121395616584 H 0.0 **** 0.06
33400 H 47.60848731559007 98.88440416819054 166.40404499163353 H 0.0 **** 0.06
33401 C 133.06386477140134 112.47216882977744 144.89007429313216 C 0.0 **** -0.24
33402 H 132.22275904742364 113.1288244095744 144.66721155107632 H 0.0 **** 0.06
33403 H 132.98410214827152 111.56506724134812 144.29132241967022 H 0.0 **** 0.06
33404 H 133.04971552547954 112.21070225687947 145.94876889089625 H 0.0 **** 0.06
33405 H 133.99643564206102 112.98375534673852 144.65437541732524 H 0.0 **** 0.06
33406 C 105.87362550709682 50.85764698360924 148.2158020844154 C 0.0 **** -0.24
33407 H 106.64882014707337 51.53636407417633 147.86114655362533 H 0.0 **** 0.06
33408 H 105.82599763681318 49.987832756272724 147.55967632234518 H 0.0 **** 0.06
33409 H 104.91180155657742 51.370139691183624 148.21099700143816 H 0.0 **** 0.06
33410 H 106.10912369763915 50.53449517064715 149.23021556811756 H 0.0 **** 0.06
33411 C 56.88834828796956 20.961509862304723 38.31925613522958 C 0.0 **** -0.24
33412 H 56.432340276464686 21.230105479878027 39.27151462882523 H 0.0 **** 0.06
33413 H 57.93343291378608 20.69646587044509 38.478730227565165 H 0.0 **** 0.06
33414 H 56.828257446153486 21.80990734231048 37.63660979357397 H 0.0 **** 0.06
33415 H 56.35844321301755 20.111518933248327 37.88960370475718 H 0.0 **** 0.06
33416 C 149.1982421613099 79.89850571311975 54.571377650628804 C 0.0 **** -0.24
33417 H 148.87115149990922 80.92841607569055 54.42724389397634 H 0.0 **** 0.06
33418 H 150.28142137419422 79.87469569910449 54.69557545099153 H 0.0 **** 0.06
33419 H 148.9193097013262 79.30385526722532 53.70046160106237 H 0.0 **** 0.06
33420 H 148.72124513156683 79.48708562737123 55.46023618663668 H 0.0 **** 0.06
33421 C 171.59251467576922 139.01087067254832 12.910248972147556 C 0.0 **** -0.24
33422 H 172.0530714253843 139.03316932080708 13.897915634278462 H 0.0 **** 0.06
33423 H 171.85366674294087 139.91914679264153 12.367672473198262 H 0.0 **** 0.06
33424 H 170.50914542499282 138.94986070451932 13.016527155019823 H 0.0 **** 0.06
33425 H 171.95415336276642 138.14180888072582 12.36053791101562 H 0.0 **** 0.06
33426 C 102.3421552249905 151.57341322534 154.98623349727092 C 0.0 **** -0.24
33427 H 103.3583257816559 151.44689455662117 154.61116064515093 H 0.0 **** 0.06
33428 H 102.21086808710655 152.5960446943124 155.34290815362755 H 0.0 **** 0.06
33429 H 102.1688978957028 150.87767950341154 155.80684037822542 H 0.0 **** 0.06
33430 H 101.6318955042232 151.3733275833727 154.18424157801732 H 0.0 **** 0.06
33431 C 106.78362428200865 135.29819960124817 101.06929869733779 C 0.0 **** -0.24
33432 H 107.67216954326622 134.9566988313539 101.6008311455573 H 0.0 **** 0.06
33433 H 106.330696364192 136.1258216808354 101.61538860351573 H 0.0 **** 0.06
33434 H 106.0691047372924 134.4790362083698 100.99269372121995 H 0.0 **** 0.06
33435 H 107.06420310167397 135.631597792856 100.07053128817353 H 0.0 **** 0.06
33436 C 41.50047290400394 105.0572419927326 29.168881877809213 C 0.0 **** -0.24
33437 H 41.27220315115889 104.86277426408759 30.216730341150395 H 0.0 **** 0.06
33438 H 42.525611105875 104.75104605182406 28.95836840467848 H 0.0 **** 0.06
33439 H 41.389235444809046 106.12186900169883 28.964143669731016 H 0.0 **** 0.06
33440 H 40.815619053535386 104.4915853874748 28.537012431168478 H 0.0 **** 0.06
33441 C 96.58000789246591 42.4392315258319 170.51781350310637 C 0.0 **** -0.24
33442 H 96.70168765093331 41.991262006229306 171.50455387415758 H 0.0 **** 0.06
33443 H 97.54462781793154 42.46434862012296 170.00982064285932 H 0.0 **** 0.06
33444 H 96.19865752362608 43.454626964368146 170.62547585984993 H 0.0 **** 0.06
33445 H 95.87617538544828 41.84647010567096 169.9343541130543 H 0.0 **** 0.06
33446 C 74.77654964915072 13.172476992718664 157.20984334274442 C 0.0 **** -0.24
33447 H 75.00734455719022 12.650859635460463 156.2807463396453 H 0.0 **** 0.06
33448 H 74.59102276877934 12.442882053037295 157.99882636979407 H 0.0 **** 0.06
33449 H 73.88997621193302 13.790381395330371 157.0694444158047 H 0.0 **** 0.06
33450 H 75.6194709696947 13.804423522714188 157.48962435880796 H 0.0 **** 0.06
33451 C 153.14639528391467 33.70954408634087 103.10972924433531 C 0.0 **** -0.24
33452 H 152.39103803644366 34.4541588832451 103.36168048746066 H 0.0 **** 0.06
33453 H 152.68514646806017 32.903689987800746 102.53800036406852 H 0.0 **** 0.06
33454 H 153.57850919633958 33.30587603464237 104.02517822979763 H 0.0 **** 0.06
33455 H 153.93037411164653 34.176441582350975 102.5121146886375 H 0.0 **** 0.06
33456 C 33.47408831715785 31.170214832875217 113.43789362368267 C 0.0 **** -0.24
33457 H 33.536934518068506 30.764491796616255 114.44771656039242 H 0.0 **** 0.06
33458 H 33.14018514165605 32.20673967571389 113.48215531245785 H 0.0 **** 0.06
33459 H 32.76394922953875 30.583699884553823 112.85498636178644 H 0.0 **** 0.06
33460 H 34.455840459707304 31.124413837581926 112.9660851915637 H 0.0 **** 0.06
33461 C 123.4290271817903 54.072928039665726 154.5392403406575 C 0.0 **** -0.24
33462 H 123.96884672270699 53.13083894448175 154.44563919907304 H 0.0 **** 0.06
33463 H 122.71809505819394 54.16722850348424 153.71742943325327 H 0.0 **** 0.06
33464 H 124.13613096218634 54.9019109769672 154.5062142309035 H 0.0 **** 0.06
33465 H 122.89238062926427 54.09062862506096 155.4882695161238 H 0.0 **** 0.06
33466 C 42.271148666485146 69.2862354661058 16.709525992328288 C 0.0 **** -0.24
33467 H 42.50160303543231 68.28141505181274 16.35802940034985 H 0.0 **** 0.06
33468 H 43.1852211670132 69.77043706498556 17.05227873479822 H 0.0 **** 0.06
33469 H 41.55904597720087 69.22870449107823 17.533096358263307 H 0.0 **** 0.06
33470 H 41.83676513296774 69.86546105348056 15.894638359946576 H 0.0 **** 0.06
33471 C 2.0491269376121295 151.1990709833393 135.8685991772772 C 0.0 **** -0.24
33472 H 1.1009469953449695 151.72789151404174 135.76439807864088 H 0.0 **** 0.06
33473 H 2.1212492652949777 150.77798257498267 136.8719082704127 H 0.0 **** 0.06
33474 H 2.871963792048973 151.89493798524109 135.7058791651293 H 0.0 **** 0.06
33475 H 2.101067730481759 150.39746316109608 135.1328409311297 H 0.0 **** 0.06
33476 C 145.8113892792667 13.151321138574986 29.975544503482737 C 0.0 **** -0.24
33477 H 145.23594077077294 14.075987479171431 30.02014673050587 H 0.0 **** 0.06
33478 H 146.83812465731546 13.34851635522952 30.285361742680564 H 0.0 **** 0.06
33479 H 145.80650463284513 12.76989140040763 28.954863036146804 H 0.0 **** 0.06
33480 H 145.36562874555756 12.413795903844289 30.642181008894823 H 0.0 **** 0.06
33481 C 34.44511127042847 93.2367459826296 8.138336699852374 C 0.0 **** -0.24
33482 H 35.263129524138606 93.95632228417199 8.165507569087367 H 0.0 **** 0.06
33483 H 33.51567928225626 93.73199445616834 8.41834973103164 H 0.0 **** 0.06
33484 H 34.65148163963815 92.42664987396287 8.83773268752249 H 0.0 **** 0.06
33485 H 34.35123167743066 92.83194531629249 7.1297985123170875 H 0.0 **** 0.06
33486 C 139.24240155012856 76.25963383217265 120.78231209115864 C 0.0 **** -0.24
33487 H 138.98173222756932 76.19741705523313 119.72518258320338 H 0.0 **** 0.06
33488 H 140.29415051311076 76.00480795270562 120.91253910127688 H 0.0 **** 0.06
33489 H 138.626019610506 75.56055818950989 121.34865719006046 H 0.0 **** 0.06
33490 H 139.0658944924064 77.27333298873026 121.14066169298303 H 0.0 **** 0.06
33491 C 39.01142093514858 66.055334675137 145.43203466488174 C 0.0 **** -0.24
33492 H 39.611325423936535 65.84610446898974 144.54663108672528 H 0.0 **** 0.06
33493 H 39.66229297775607 66.1273527890807 146.30368549762665 H 0.0 **** 0.06
33494 H 38.29201839168928 65.24947739798783 145.58114282838508 H 0.0 **** 0.06
33495 H 38.47980747824971 66.99643967924442 145.29638935797206 H 0.0 **** 0.06
33496 C 2.729297092538445 24.11321460881709 49.70939958366273 C 0.0 **** -0.24
33497 H 2.2620359819501346 24.83309088162065 49.03792704317709 H 0.0 **** 0.06
33498 H 2.7540885856961097 24.522038629872554 50.719939295969084 H 0.0 **** 0.06
33499 H 3.7466295754368844 23.910305476865346 49.37415086950023 H 0.0 **** 0.06
33500 H 2.1544342270707375 23.18742344690969 49.70558112600452 H 0.0 **** 0.06
33501 C 33.80533592398045 158.39910108312333 4.317475611176576 C 0.0 **** -0.24
33502 H 33.454312631011845 157.61447751986225 4.98785065622593 H 0.0 **** 0.06
33503 H 34.0855577194976 157.96128838021892 3.3592882736543856 H 0.0 **** 0.06
33504 H 34.67174760752603 158.89199375437357 4.758717948197841 H 0.0 **** 0.06
33505 H 33.01022357237876 159.12994962837234 4.165791821221177 H 0.0 **** 0.06
33506 C 135.7055600902665 60.32382730168706 59.5891330330375 C 0.0 **** -0.24
33507 H 135.6037920838204 60.95909203947048 58.71024275415532 H 0.0 **** 0.06
33508 H 135.51327311051756 59.28635444380859 59.31273654832627 H 0.0 **** 0.06
33509 H 134.98843507361204 60.636380043767076 60.34884923499668 H 0.0 **** 0.06
33510 H 136.71646859617806 60.412086066448296 59.986697567696524 H 0.0 **** 0.06
33511 C 3.507824767845136 23.786227554089976 93.58336413116805 C 0.0 **** -0.24
33512 H 3.1400231479685488 23.243654367795386 92.71211588372213 H 0.0 **** 0.06
33513 H 4.598288313540763 23.765090074661174 93.58982085610046 H 0.0 **** 0.06
33514 H 3.130044414854268 23.315226542243437 94.49123375610188 H 0.0 **** 0.06
33515 H 3.164389444823911 24.819550523168715 93.53929608436445 H 0.0 **** 0.06
33516 C 78.87752783176586 127.87748015787747 147.92226044235068 C 0.0 **** -0.24
33517 H 79.56669718443482 127.03400193790625 147.8882418321004 H 0.0 **** 0.06
33518 H 79.26382834104436 128.63487532481736 148.60404020985735 H 0.0 **** 0.06
33519 H 77.9031503812327 127.5366041290805 148.2722008671226 H 0.0 **** 0.06
33520 H 78.77643542035139 128.30443923970557 146.92455886032224 H 0.0 **** 0.06
33521 C 129.8366412842366 2.5183669509729043 3.019398214274645 C 0.0 **** -0.24
33522 H 130.08424037664287 3.553594586483001 3.2526911594583794 H 0.0 **** 0.06
33523 H 130.50350589459683 2.1523604045830496 2.2385000168336546 H 0.0 **** 0.06
33524 H 128.80497924814588 2.4601379695491232 2.674136022469156 H 0.0 **** 0.06
33525 H 129.95450141321976 1.9068230436650424 3.914329073795898 H 0.0 **** 0.06
33526 C 35.075188815915084 96.48696914402402 140.36256208818372 C 0.0 **** -0.24
33527 H 35.76388214171466 97.03502141995813 141.00582051239724 H 0.0 **** 0.06
33528 H 34.27052864281461 96.06734927955753 140.96700760502867 H 0.0 **** 0.06
33529 H 35.61005751112913 95.68175862808383 139.85932091570197 H 0.0 **** 0.06
33530 H 34.65569452233238 97.1651305152246 139.6197533211028 H 0.0 **** 0.06
33531 C 29.757908779750096 114.94826880127624 50.37470543947026 C 0.0 **** -0.24
33532 H 30.20199650078564 113.97195778261747 50.56741003194378 H 0.0 **** 0.06
33533 H 28.708759842273764 114.82421467853314 50.10655759973997 H 0.0 **** 0.06
33534 H 30.287243773490786 115.4323235997486 49.553836626652696 H 0.0 **** 0.06
33535 H 29.834001337816403 115.56533383634871 51.27047319622778 H 0.0 **** 0.06
33536 C 168.93188483609828 114.10541551881849 121.42196670889876 C 0.0 **** -0.24
33537 H 167.9170052057399 113.71096078039554 121.47087454527369 H 0.0 **** 0.06
33538 H 169.31196649805918 114.00303142305833 120.40444487943196 H 0.0 **** 0.06
33539 H 169.57224364805492 113.54885705791881 122.10600650751161 H 0.0 **** 0.06
33540 H 168.92604715527898 115.15758107840878 121.70364151238525 H 0.0 **** 0.06
33541 C 7.225969709105641 172.69437283317018 86.30622313809062 C 0.0 **** -0.24
33542 H 8.23360219501695 172.90633442624346 86.66293061536209 H 0.0 **** 0.06
33543 H 6.507470878680628 173.28850403081594 86.87125388642653 H 0.0 **** 0.06
33544 H 7.008265510231837 171.63478173698985 86.44208626496749 H 0.0 **** 0.06
33545 H 7.153357413900736 172.94675283108987 85.24802986930956 H 0.0 **** 0.06
33546 C 96.5850416471834 148.58141287206877 8.313243529930773 C 0.0 **** -0.24
33547 H 96.35071680751847 148.58675519100137 7.248107598777203 H 0.0 **** 0.06
33548 H 96.84329539393806 147.56862984738132 8.622757238159501 H 0.0 **** 0.06
33549 H 95.71728400100184 148.92389355183593 8.876333945370071 H 0.0 **** 0.06
33550 H 97.42691672068122 149.24618771306413 8.50258954264698 H 0.0 **** 0.06
33551 C 82.22995432496393 167.35620554320363 123.2862789612748 C 0.0 **** -0.24
33552 H 82.82623123031621 166.7267726864025 123.94665408819245 H 0.0 **** 0.06
33553 H 82.16846742239849 168.36190078102078 123.70230737317792 H 0.0 **** 0.06
33554 H 81.2272854850511 166.9390702769242 123.19570558391933 H 0.0 **** 0.06
33555 H 82.6970877085978 167.39667280361968 122.30332630201843 H 0.0 **** 0.06
33556 C 56.47689871454769 37.49235812485162 27.585665390608085 C 0.0 **** -0.24
33557 H 56.765287339611405 37.593605014217076 28.63209563799211 H 0.0 **** 0.06
33558 H 55.642094343610765 38.160537597340124 27.37333298738841 H 0.0 **** 0.06
33559 H 56.17758487360064 36.46311319801819 27.38875353415719 H 0.0 **** 0.06
33560 H 57.32224950676188 37.7534651480201 26.94892262519275 H 0.0 **** 0.06
33561 C 27.17197267987531 95.3413451004877 86.5785084377675 C 0.0 **** -0.24
33562 H 27.71944253003997 94.71817096957338 85.87162376468642 H 0.0 **** 0.06
33563 H 27.513353662474977 96.3726067951531 86.49387687296047 H 0.0 **** 0.06
33564 H 27.348341092328027 94.98116524530309 87.59169095818676 H 0.0 **** 0.06
33565 H 26.106072246192547 95.2915958889244 86.35577211381349 H 0.0 **** 0.06
33566 C 32.78247082365772 7.991603015761683 135.38439991050433 C 0.0 **** -0.24
33567 H 33.12752999340364 9.015699668951243 135.52896621744563 H 0.0 **** 0.06
33568 H 32.98071482228937 7.683214832052499 134.35852701665806 H 0.0 **** 0.06
33569 H 31.711524149675427 7.938730691148095 135.58056801860334 H 0.0 **** 0.06
33570 H 33.31059018051894 7.330495498489682 136.07214332530532 H 0.0 **** 0.06
33571 C 2.2737569657832637 39.16043404561191 17.157167194008167 C 0.0 **** -0.24
33572 H 1.7362043169983394 38.26858177408525 17.479421540156984 H 0.0 **** 0.06
33573 H 1.7523613386596253 40.04776758459491 17.516761392172967 H 0.0 **** 0.06
33574 H 2.3211689654207817 39.18168182565114 16.067879421596288 H 0.0 **** 0.06
33575 H 3.284049462639018 39.14213881955192 17.564620885804715 H 0.0 **** 0.06
33576 C 43.27185166199496 0.5832887765167243 161.2932056949423 C 0.0 **** -0.24
33577 H 43.22084939200502 0.8998259253434071 162.33493031482334 H 0.0 **** 0.06
33578 H 42.31715386048069 0.14565415229111522 160.9997056834601 H 0.0 **** 0.06
33579 H 44.062766446616024 -0.15646564487101955 161.17748045702632 H 0.0 **** 0.06
33580 H 43.48565256416458 1.4460227769397989 160.66192650486687 H 0.0 **** 0.06
33581 C 8.358631210143507 92.98870077663062 19.384658269125914 C 0.0 **** -0.24
33582 H 7.4885948140279055 93.61398024747427 19.586176134875323 H 0.0 **** 0.06
33583 H 8.81855866808177 93.29809116193965 18.444950564844667 H 0.0 **** 0.06
33584 H 8.046892335295368 91.9463914927374 19.31056749427067 H 0.0 **** 0.06
33585 H 9.079185566309093 93.09550091571114 20.195035535070303 H 0.0 **** 0.06
33586 C 96.7336165358777 60.54007432485824 67.03481870190697 C 0.0 **** -0.24
33587 H 97.42242837586303 61.367873169084476 67.20725287817208 H 0.0 **** 0.06
33588 H 97.30302743617864 59.63050142650309 66.83949435901643 H 0.0 **** 0.06
33589 H 96.1022986680617 60.765493352052886 66.17568240311688 H 0.0 **** 0.06
33590 H 96.11043790325988 60.39669003146338 67.91706328132652 H 0.0 **** 0.06
33591 C 166.65635073318978 59.574263827658115 112.91814249697751 C 0.0 **** -0.24
33592 H 166.960355848951 60.48770006864065 112.40859636429133 H 0.0 **** 0.06
33593 H 165.59777707122086 59.39123046823147 112.73509124145534 H 0.0 **** 0.06
33594 H 166.82784771710055 59.68117795740372 113.98917066371234 H 0.0 **** 0.06
33595 H 167.24156033275523 58.73578013831563 112.53945128308834 H 0.0 **** 0.06
33596 C 79.96142550097858 154.39232764133294 36.52034412806596 C 0.0 **** -0.24
33597 H 80.68758285197265 154.90574060465343 37.15082396444605 H 0.0 **** 0.06
33598 H 80.48046244696356 153.6872005400387 35.86961095744965 H 0.0 **** 0.06
33599 H 79.42809239740845 155.1232973607792 35.91242204319984 H 0.0 **** 0.06
33600 H 79.2523705044809 153.85388555681016 37.14783856772971 H 0.0 **** 0.06
33601 C 33.724445545281924 168.0291720949361 23.405045053989966 C 0.0 **** -0.24
33602 H 34.37191558443334 168.6865788284 22.825550364253786 H 0.0 **** 0.06
33603 H 33.51448096753808 167.12683850855893 22.83059996095227 H 0.0 **** 0.06
33604 H 32.78940596013035 168.54453069825507 23.627093922116785 H 0.0 **** 0.06
33605 H 34.22116579044098 167.76026216151644 24.337083476281975 H 0.0 **** 0.06
33606 C 1.1319813646200956 167.52289542374774 86.387832296473 C 0.0 **** -0.24
33607 H 0.5389773014020278 168.0976369555631 85.67546611592235 H 0.0 **** 0.06
33608 H 2.153040546511896 167.9069655493418 86.4026489038364 H 0.0 **** 0.06
33609 H 1.141959235012088 166.4754061106465 86.09021222851271 H 0.0 **** 0.06
33610 H 0.6943248836064555 167.61517309101163 87.38205401915656 H 0.0 **** 0.06
33611 C 168.26266633187743 18.41517792840898 129.29975940459326 C 0.0 **** -0.24
33612 H 168.89575527139897 18.262547525730497 130.17362010828305 H 0.0 **** 0.06
33613 H 167.9398132545393 17.448585978430458 128.9120893157144 H 0.0 **** 0.06
33614 H 168.8250146309773 18.946199520996288 128.5321067310617 H 0.0 **** 0.06
33615 H 167.38849473128528 19.003096135003716 129.58277076626482 H 0.0 **** 0.06
33616 C 123.84486505393812 60.6580437405687 51.85774416506132 C 0.0 **** -0.24
33617 H 123.63108484698844 61.44168362730096 52.58573920806623 H 0.0 **** 0.06
33618 H 124.89620562244991 60.37714457348903 51.92484013581503 H 0.0 **** 0.06
33619 H 123.62919827045829 61.02614643492706 50.854820726629384 H 0.0 **** 0.06
33620 H 123.22216335908215 59.78875713167156 52.06779549229515 H 0.0 **** 0.06
33621 C 94.24002162953818 34.75385895061095 162.42148212753918 C 0.0 **** -0.24
33622 H 93.91639167588667 34.8123891139322 161.38247440531813 H 0.0 **** 0.06
33623 H 95.26986503046373 34.39881278694766 162.46135667686625 H 0.0 **** 0.06
33624 H 93.59508106142675 34.06232834723019 162.9643700489489 H 0.0 **** 0.06
33625 H 94.17748428279842 35.74253654806641 162.8777823746533 H 0.0 **** 0.06
33626 C 7.595480110653426 69.65184828707157 65.14178151833428 C 0.0 **** -0.24
33627 H 8.67687472903134 69.5509190203022 65.2397926316199 H 0.0 **** 0.06
33628 H 7.109093857133985 68.77972471535678 65.57843248375062 H 0.0 **** 0.06
33629 H 7.332746437965568 69.7248942369941 64.0862198173155 H 0.0 **** 0.06
33630 H 7.266684712056815 70.5516386742861 65.66132171634682 H 0.0 **** 0.06
33631 C 160.3050623375214 56.55972215608506 11.766881149094559 C 0.0 **** -0.24
33632 H 160.15303028303856 55.60232944929993 11.2687309329159 H 0.0 **** 0.06
33633 H 160.72911044451567 56.39069189648467 12.756641805438733 H 0.0 **** 0.06
33634 H 159.34872321534607 57.075133220411146 11.862782871035279 H 0.0 **** 0.06
33635 H 160.98962030462476 57.17092429953743 11.178415750744534 H 0.0 **** 0.06
33636 C 2.4657831695635366 51.87568678218349 113.53449101390137 C 0.0 **** -0.24
33637 H 2.6182923233421107 51.59598369148836 114.5770083185962 H 0.0 **** 0.06
33638 H 2.411576510007947 50.975731873492904 112.92120314520474 H 0.0 **** 0.06
33639 H 3.2980948118317883 52.49582162626332 113.19955022925058 H 0.0 **** 0.06
33640 H 1.5352787264730807 52.43640067525992 113.44145543665994 H 0.0 **** 0.06
33641 C 49.1839309735699 82.79923931425483 172.5109745226918 C 0.0 **** -0.24
33642 H 49.60769049308007 83.62611175974178 173.08039879128563 H 0.0 **** 0.06
33643 H 48.98382656351332 83.1268418500982 171.49065202585024 H 0.0 **** 0.06
33644 H 48.25318459478538 82.47608212573274 172.9773303930619 H 0.0 **** 0.06
33645 H 49.8900789827684 81.96935877566978 172.4957281728221 H 0.0 **** 0.06
33646 C 121.16948623595357 63.52942533351674 100.1398529821193 C 0.0 **** -0.24
33647 H 122.20723549148178 63.204430526761854 100.21156094298885 H 0.0 **** 0.06
33648 H 120.91222944177386 63.69588356969808 99.09335892640817 H 0.0 **** 0.06
33649 H 121.03853028889765 64.45662608417183 100.69864410655339 H 0.0 **** 0.06
33650 H 120.51818689591957 62.75944635169844 100.55625277527534 H 0.0 **** 0.06
33651 C 8.949633741855585 74.36468580886435 61.54455995555814 C 0.0 **** -0.24
33652 H 8.130475160996866 73.87227568913801 61.021781186241256 H 0.0 **** 0.06
33653 H 8.597645196467091 74.73163071631029 62.50855304481955 H 0.0 **** 0.06
33654 H 9.310609667918833 75.20162850973361 60.94707483284641 H 0.0 **** 0.06
33655 H 9.761075602606489 73.6527880667403 61.700373741308454 H 0.0 **** 0.06
33656 C 139.463039579593 37.11219226654373 160.1567366847628 C 0.0 **** -0.24
33657 H 140.2539507496707 36.62340795271612 160.72563175446626 H 0.0 **** 0.06
33658 H 138.63559721825607 37.35726978989419 160.82359151754875 H 0.0 **** 0.06
33659 H 139.11193458759737 36.44117447776631 159.37316308854528 H 0.0 **** 0.06
33660 H 139.85082088209333 38.02570975380246 159.7073030269746 H 0.0 **** 0.06
33661 C 75.91687497187714 141.50886139279794 166.59261011198126 C 0.0 **** -0.24
33662 H 76.6828239211819 141.74747414740023 167.33048499609123 H 0.0 **** 0.06
33663 H 75.39219284827841 142.42143855574767 166.3070740928495 H 0.0 **** 0.06
33664 H 75.20802778924178 140.8004734141702 167.02053102598288 H 0.0 **** 0.06
33665 H 76.38608756474024 141.06783278447483 165.71278767957733 H 0.0 **** 0.06
33666 C 98.73770422844902 76.55940072394806 130.4756239425805 C 0.0 **** -0.24
33667 H 97.89275386299013 75.96018298611712 130.1351592742077 H 0.0 **** 0.06
33668 H 98.4413256543894 77.60736016162308 130.5297715895078 H 0.0 **** 0.06
33669 H 99.56537991241427 76.45133878147445 129.77435240098202 H 0.0 **** 0.06
33670 H 99.05039587296031 76.21756390275556 131.4623542566445 H 0.0 **** 0.06
33671 C 85.9586455904841 16.329289938383873 46.83602984329353 C 0.0 **** -0.24
33672 H 85.27762254623447 16.756603708300887 47.571192209960515 H 0.0 **** 0.06
33673 H 86.87575657925532 16.011807494982953 47.333129976454416 H 0.0 **** 0.06
33674 H 86.19515515180204 17.07981314238068 46.08134557067599 H 0.0 **** 0.06
33675 H 85.48642978321766 15.471062164432375 46.35902724824588 H 0.0 **** 0.06
33676 C 4.530310118663522 76.98336270122456 6.490942327687641 C 0.0 **** -0.24
33677 H 4.296800134273212 78.04674117343353 6.529652283090243 H 0.0 **** 0.06
33678 H 5.267913097928499 76.74598878393385 7.259037840543016 H 0.0 **** 0.06
33679 H 4.934204696036375 76.73556999308192 5.509277348251416 H 0.0 **** 0.06
33680 H 3.6228788321138836 76.4051909052967 6.667101453430178 H 0.0 **** 0.06
33681 C 70.18660205440366 97.57343949313764 55.2279745548698 C 0.0 **** -0.24
33682 H 69.34809794780097 96.88380642568677 55.325382369886086 H 0.0 **** 0.06
33683 H 70.31922072740038 97.83720152708776 54.17796926640756 H 0.0 **** 0.06
33684 H 71.09293540593049 97.09748212407382 55.60154062358265 H 0.0 **** 0.06
33685 H 69.98420809822964 98.47493086653131 55.8059573957689 H 0.0 **** 0.06
33686 C 24.927823398091967 20.171932382502 69.72229303034207 C 0.0 **** -0.24
33687 H 24.160869793270507 19.551615713653682 70.1871119309524 H 0.0 **** 0.06
33688 H 24.80772618678629 20.14681794469694 68.63896799828422 H 0.0 **** 0.06
33689 H 25.913141990228276 19.78994346385327 69.98873986093525 H 0.0 **** 0.06
33690 H 24.827470635559173 21.198523186348915 70.07634368108076 H 0.0 **** 0.06
33691 C 165.28694356383087 137.5196547756127 111.31908101183032 C 0.0 **** -0.24
33692 H 165.24684401135994 136.57736497912407 110.7723158331535 H 0.0 **** 0.06
33693 H 164.3759728573363 137.6381869290537 111.90564531518672 H 0.0 **** 0.06
33694 H 165.3746130701825 138.3457786505914 110.61204519893664 H 0.0 **** 0.06
33695 H 166.15010258322658 137.51772369211352 111.9839192883858 H 0.0 **** 0.06
33696 C 83.38054105309011 39.12717201794243 68.21118482433927 C 0.0 **** -0.24
33697 H 83.43730290675335 38.663619594656154 69.19664687818783 H 0.0 **** 0.06
33698 H 84.27916584892327 38.88442194157528 67.64355459498366 H 0.0 **** 0.06
33699 H 83.30256227810682 40.2083230122517 68.32426008001684 H 0.0 **** 0.06
33700 H 82.5036310947763 38.75224289705068 67.68339957987693 H 0.0 **** 0.06
33701 C 82.40382699577634 77.14790822991424 127.48052294899466 C 0.0 **** -0.24
33702 H 81.32161962873579 77.04687235773635 127.55281479160914 H 0.0 **** 0.06
33703 H 82.67030013133473 78.20514910929948 127.4769181046666 H 0.0 **** 0.06
33704 H 82.75146668097028 76.68154012029834 126.55879054955284 H 0.0 **** 0.06
33705 H 82.87201379900438 76.65838330909942 128.33451396480714 H 0.0 **** 0.06
33706 C 151.87050277889753 148.05465613141035 96.12902750189494 C 0.0 **** -0.24
33707 H 151.93258968159674 147.69746604837317 97.15714260055995 H 0.0 **** 0.06
33708 H 151.09538960434347 147.5013418144827 95.59884166939366 H 0.0 **** 0.06
33709 H 152.82902705317468 147.90252993073068 95.63358022972193 H 0.0 **** 0.06
33710 H 151.62515165011843 149.11715603020892 96.12898712883131 H 0.0 **** 0.06
33711 C 3.838303931480084 117.44370519228605 34.03252137603377 C 0.0 **** -0.24
33712 H 4.920681055468208 117.57605228721602 34.036017076708134 H 0.0 **** 0.06
33713 H 3.559657894211284 116.70645581061308 34.78511283585732 H 0.0 **** 0.06
33714 H 3.5179280227884533 117.09993944974016 33.048998840842046 H 0.0 **** 0.06
33715 H 3.3559963383335685 118.39536932124466 34.25899432673765 H 0.0 **** 0.06
33716 C 42.49396452623151 169.88986566443893 60.14860578002208 C 0.0 **** -0.24
33717 H 43.581821813335765 169.86194108195778 60.0908744188105 H 0.0 **** 0.06
33718 H 42.071269330143934 169.5266465356338 59.21271488056502 H 0.0 **** 0.06
33719 H 42.16620144951169 170.91478851908832 60.32258478536056 H 0.0 **** 0.06
33720 H 42.15748935738657 169.25735667066152 60.970128768631696 H 0.0 **** 0.06
33721 C 20.614859906637093 9.953847606487784 27.728258438375335 C 0.0 **** -0.24
33722 H 21.214976702315482 9.920436898934604 28.636810969979962 H 0.0 **** 0.06
33723 H 20.587179049042476 10.975724299894033 27.34932309793249 H 0.0 **** 0.06
33724 H 19.600320200679505 9.620928443880928 27.950117032956527 H 0.0 **** 0.06
33725 H 21.056331185171643 9.298927035274055 26.977881661955024 H 0.0 **** 0.06
33726 C 14.181802389838133 90.16659721908596 144.50978202554055 C 0.0 **** -0.24
33727 H 13.894748379796141 91.09051868388329 145.01260339380948 H 0.0 **** 0.06
33728 H 14.145787742402398 89.34075583367701 145.2193826887222 H 0.0 **** 0.06
33729 H 15.194290557775702 90.26581678021353 144.1177713257315 H 0.0 **** 0.06
33730 H 13.49239389027862 89.97141964923016 143.68866582899582 H 0.0 **** 0.06
33731 C 58.25850033895128 13.17060114025378 50.46640856049463 C 0.0 **** -0.24
33732 H 57.739068331112406 13.331221710074033 49.521006189606254 H 0.0 **** 0.06
33733 H 58.82474517293389 12.240728287107686 50.414887246818466 H 0.0 **** 0.06
33734 H 57.530895176832985 13.108827011743017 51.27553949240631 H 0.0 **** 0.06
33735 H 58.93957135048106 14.001620112492844 50.6510513030034 H 0.0 **** 0.06
33736 C 11.815710002389409 73.18540551746446 3.5381913609302558 C 0.0 **** -0.24
33737 H 12.842683124363184 73.41897429564796 3.2581663535424923 H 0.0 **** 0.06
33738 H 11.147588453171316 73.44214641119214 2.715174995703876 H 0.0 **** 0.06
33739 H 11.540393636830736 73.76095131384454 4.42315191311971 H 0.0 **** 0.06
33740 H 11.731046815471672 72.12147136844891 3.756462795232437 H 0.0 **** 0.06
33741 C 22.59480470706643 128.18117290177287 16.28822077219793 C 0.0 **** -0.24
33742 H 23.16607572275054 127.41481006846294 16.810064197166405 H 0.0 **** 0.06
33743 H 22.351126379046434 127.83252950409877 15.284745394865901 H 0.0 **** 0.06
33744 H 23.186896269020963 129.09377702564268 16.223025156750886 H 0.0 **** 0.06
33745 H 21.674199202951456 128.38372048602304 16.836111440389168 H 0.0 **** 0.06
33746 C 58.05898396362595 68.26680550539987 128.2845668143661 C 0.0 **** -0.24
33747 H 58.77457974099728 67.94062717561444 127.53076476735839 H 0.0 **** 0.06
33748 H 57.47189531419686 69.09749835325847 127.8926401610156 H 0.0 **** 0.06
33749 H 58.59433688384739 68.58887452436196 129.1786853913383 H 0.0 **** 0.06
33750 H 57.39519970015728 67.43943985676776 128.53735278382746 H 0.0 **** 0.06
33751 C 119.77639575950477 164.55313481444477 14.131935183744503 C 0.0 **** -0.24
33752 H 120.36041828983517 165.45036131213587 14.338266220631567 H 0.0 **** 0.06
33753 H 118.77661573037005 164.83888534475705 13.805406922648984 H 0.0 **** 0.06
33754 H 119.70525300537133 163.95063728266908 15.037609310325536 H 0.0 **** 0.06
33755 H 120.26339042541346 163.97400785503814 13.347928601767478 H 0.0 **** 0.06
33756 C 13.465049466157566 43.469053127330426 97.25113591385178 C 0.0 **** -0.24
33757 H 12.843732984926156 44.03139854823689 96.55477421390015 H 0.0 **** 0.06
33758 H 12.842882654756416 42.76888156037026 97.80955014192705 H 0.0 **** 0.06
33759 H 13.949349901482258 44.1577560945382 97.94378626638579 H 0.0 **** 0.06
33760 H 14.225075499074116 42.91769221357163 96.6966669929667 H 0.0 **** 0.06
33761 C 159.54966318865652 169.72264868616963 102.67052736021674 C 0.0 **** -0.24
33762 H 159.0295970392979 170.27102513125686 103.45633438224183 H 0.0 **** 0.06
33763 H 159.4489380455091 168.65130106356509 102.84735194193803 H 0.0 **** 0.06
33764 H 160.60542748753912 169.99442712708898 102.67595149605143 H 0.0 **** 0.06
33765 H 159.11421258531777 169.9743616233013 101.70317966052053 H 0.0 **** 0.06
33766 C 105.30602416728189 79.15189760945124 83.94427519121744 C 0.0 **** -0.24
33767 H 104.92714370037379 80.16766251687753 84.05574455887883 H 0.0 **** 0.06
33768 H 106.26311612721821 79.17686494068349 83.42229738926201 H 0.0 **** 0.06
33769 H 104.59393790636645 78.55909956842369 83.3699183057865 H 0.0 **** 0.06
33770 H 105.44038122045006 78.70472854071744 84.92956713327 H 0.0 **** 0.06
33771 C 151.306440549547 34.59548861035637 160.1959864983025 C 0.0 **** -0.24
33772 H 150.29182108945687 34.1999252712518 160.13171181046872 H 0.0 **** 0.06
33773 H 151.41053394047077 35.18127237449454 161.10975679572198 H 0.0 **** 0.06
33774 H 151.5035657961849 35.230395215867475 159.3322119770526 H 0.0 **** 0.06
33775 H 152.01698499214783 33.76944518320329 160.21030493657142 H 0.0 **** 0.06
33776 C 10.461429198521891 121.58167609534922 47.294699796039936 C 0.0 **** -0.24
33777 H 10.887756042484455 122.57950650018523 47.3925469184495 H 0.0 **** 0.06
33778 H 9.375570187292396 121.6557125702721 47.226868954895195 H 0.0 **** 0.06
33779 H 10.73216700481423 120.98431890125539 48.164212621954135 H 0.0 **** 0.06
33780 H 10.850500744105581 121.10813099303022 46.39293620564281 H 0.0 **** 0.06
33781 C 22.20079987895184 28.74235441671516 119.29877674496893 C 0.0 **** -0.24
33782 H 21.646285159408052 29.032201678883 118.40604543845564 H 0.0 **** 0.06
33783 H 23.175528840252156 28.349001469234537 119.00962954222408 H 0.0 **** 0.06
33784 H 21.64460616091793 27.975296877463023 119.83821578865451 H 0.0 **** 0.06
33785 H 22.335088116282293 29.612715509938553 119.940901667157 H 0.0 **** 0.06
33786 C 132.1237979415679 19.241064549922953 32.19616833374833 C 0.0 **** -0.24
33787 H 132.84092103491412 18.663509750263557 32.779249030957075 H 0.0 **** 0.06
33788 H 132.21566685140792 20.297673957121333 32.45134650966301 H 0.0 **** 0.06
33789 H 131.11417974208211 18.89882758725534 32.421270777981945 H 0.0 **** 0.06
33790 H 132.32623196086166 19.10496363524237 31.133910743492564 H 0.0 **** 0.06
33791 C 164.36475182938142 11.499236401500042 64.18249903090204 C 0.0 **** -0.24
33792 H 165.43278324956015 11.689383927187038 64.08227450696205 H 0.0 **** 0.06
33793 H 163.84101612984472 12.441568714734984 64.3441465558731 H 0.0 **** 0.06
33794 H 164.19261337858225 10.836767816116435 65.0309340129358 H 0.0 **** 0.06
33795 H 163.99291379416297 11.028281228042147 63.27272550120543 H 0.0 **** 0.06
33796 C 54.556023004696385 168.30928373903137 149.42515360634923 C 0.0 **** -0.24
33797 H 55.56370238732626 168.70669701731578 149.53966162968203 H 0.0 **** 0.06
33798 H 54.27319855888234 167.76860811034481 150.3291947694197 H 0.0 **** 0.06
33799 H 54.52731363790451 167.63150097076442 148.5727561404907 H 0.0 **** 0.06
33800 H 53.85796376867893 169.13064599065322 149.26049770556182 H 0.0 **** 0.06
33801 C 79.76851978853989 22.759599013216928 139.92025655577248 C 0.0 **** -0.24
33802 H 78.87384320881978 22.15208542153738 139.78483044363958 H 0.0 **** 0.06
33803 H 80.36746346436908 22.348861284326006 140.73323083804337 H 0.0 **** 0.06
33804 H 79.47894314319177 23.7819110512188 140.16230744595077 H 0.0 **** 0.06
33805 H 80.35252186252708 22.754768215957654 138.999354576713 H 0.0 **** 0.06
33806 C 113.46126942986047 140.86104689694403 22.7484147891538 C 0.0 **** -0.24
33807 H 113.62233168183252 141.58782483996518 21.952201276605024 H 0.0 **** 0.06
33808 H 112.4852518640609 140.39359248854498 22.621804181978575 H 0.0 **** 0.06
33809 H 113.50001127274828 141.3665080738519 23.713620605319107 H 0.0 **** 0.06
33810 H 114.23883113652727 140.09794103879622 22.706636293677576 H 0.0 **** 0.06
33811 C 151.46298059861022 45.56345156354786 136.12077929284413 C 0.0 **** -0.24
33812 H 150.4207062202371 45.683624713033055 136.41769972447395 H 0.0 **** 0.06
33813 H 151.56134828545754 44.6776992269148 135.49385285528982 H 0.0 **** 0.06
33814 H 152.08258301691924 45.450285063081765 137.0103181443642 H 0.0 **** 0.06
33815 H 151.78587460587775 46.44217665263295 135.5632491687081 H 0.0 **** 0.06
33816 C 84.40827042192764 68.85644492834058 30.696010973832074 C 0.0 **** -0.24
33817 H 84.51860301056345 69.60636828430793 31.47838225709586 H 0.0 **** 0.06
33818 H 85.3271463648938 68.80297087299378 30.111056490899387 H 0.0 **** 0.06
33819 H 83.57803687425208 69.13011636064117 30.045372539643893 H 0.0 **** 0.06
33820 H 84.20966314639503 67.88530601821509 31.150142641524695 H 0.0 **** 0.06
33821 C 140.2957900426295 64.00396060887829 54.270856718361074 C 0.0 **** -0.24
33822 H 139.96586739779826 63.98154334845566 53.23237335719955 H 0.0 **** 0.06
33823 H 139.43082681712116 64.12472769340513 54.92430844627597 H 0.0 **** 0.06
33824 H 140.98099526079432 64.83947783393114 54.41656183441518 H 0.0 **** 0.06
33825 H 140.80477585688652 63.07062127299059 54.51067185289395 H 0.0 **** 0.06
33826 C 75.2456574025818 95.77817560209866 89.02578302401594 C 0.0 **** -0.24
33827 H 75.01256682197248 96.09754349364431 88.01041407938624 H 0.0 **** 0.06
33828 H 75.26397578092931 96.64674256403899 89.68480812319979 H 0.0 **** 0.06
33829 H 76.22101218709997 95.29196076297492 89.03852482354222 H 0.0 **** 0.06
33830 H 74.48603096603324 95.07634879988967 89.36911228857088 H 0.0 **** 0.06
33831 C 125.13992879848232 38.76962542905193 103.61188196405425 C 0.0 **** -0.24
33832 H 124.34417126870622 39.19009087114239 102.99695680415635 H 0.0 **** 0.06
33833 H 125.41460471310012 39.48324066895202 104.38791326706354 H 0.0 **** 0.06
33834 H 126.00786521487373 38.557068365112 102.98771207041761 H 0.0 **** 0.06
33835 H 124.79138552401511 37.84596277263779 104.07418822103358 H 0.0 **** 0.06
33836 C 78.74501216984685 123.7543540576184 14.273691191775555 C 0.0 **** -0.24
33837 H 78.25431912124924 124.65414541161323 13.901865894256218 H 0.0 **** 0.06
33838 H 78.59649224436521 122.94040413432944 13.564410904070826 H 0.0 **** 0.06
33839 H 78.3166449533482 123.47908302366795 15.237714835162535 H 0.0 **** 0.06
33840 H 79.81241266045883 123.9450940114717 14.391273878126896 H 0.0 **** 0.06
33841 C 20.832580682615543 157.45500066447397 155.63840632286104 C 0.0 **** -0.24
33842 H 20.999982243597174 156.40301416009606 155.86721905792135 H 0.0 **** 0.06
33843 H 20.731446063856822 158.01726084528394 156.56667700620193 H 0.0 **** 0.06
33844 H 19.92074180623581 157.55756124117462 155.04941617157232 H 0.0 **** 0.06
33845 H 21.67797420686054 157.8419111650408 155.06893353587077 H 0.0 **** 0.06
33846 C 118.19569128308473 95.04758276768953 72.65474853801356 C 0.0 **** -0.24
33847 H 117.12444497240051 95.07152244266433 72.8542213783744 H 0.0 **** 0.06
33848 H 118.36897456355231 94.6655633997878 71.64865893241017 H 0.0 **** 0.06
33849 H 118.68567452183021 94.39914287453249 73.38055725584758 H 0.0 **** 0.06
33850 H 118.60198688835331 96.05588054140642 72.73559821677304 H 0.0 **** 0.06
33851 C 39.96654220365831 34.54672593963386 157.81409441722172 C 0.0 **** -0.24
33852 H 40.08055910663845 35.51361369150351 157.32531392543805 H 0.0 **** 0.06
33853 H 40.808733289412885 34.37819728794892 158.48570626326628 H 0.0 **** 0.06
33854 H 39.93976521582357 33.75933635207542 157.0605469221184 H 0.0 **** 0.06
33855 H 39.038242999474235 34.53462948555875 158.3841403916966 H 0.0 **** 0.06
33856 C 52.74228213788592 127.27182183109895 39.76055083423796 C 0.0 **** -0.24
33857 H 53.42532872542904 126.54578979368819 40.202536185486565 H 0.0 **** 0.06
33858 H 51.72319580859926 127.05010309483103 40.07686559939327 H 0.0 **** 0.06
33859 H 52.80562891113266 127.21498141063822 38.67357403762884 H 0.0 **** 0.06
33860 H 53.0153007506828 128.27405249281097 40.08979497372809 H 0.0 **** 0.06
33861 C 55.15067961171499 163.18008286267505 40.44390137992542 C 0.0 **** -0.24
33862 H 55.36454904310477 162.2073795340385 40.88552027981791 H 0.0 **** 0.06
33863 H 54.671016994346004 163.04210684615077 39.474931011442465 H 0.0 **** 0.06
33864 H 56.081657177594394 163.73267397978861 40.312966108308046 H 0.0 **** 0.06
33865 H 54.487235114456595 163.74059158945784 41.102526122575114 H 0.0 **** 0.06
33866 C 165.34710393593966 118.86905305983112 25.830360858137112 C 0.0 **** -0.24
33867 H 165.64587892699655 118.63615529303289 26.852438801014983 H 0.0 **** 0.06
33868 H 166.01982899628013 118.37189965063254 25.132372582754982 H 0.0 **** 0.06
33869 H 165.39354535853903 119.94669010596652 25.676030844850004 H 0.0 **** 0.06
33870 H 164.32727291713604 118.52158377798017 25.662155615452463 H 0.0 **** 0.06
33871 C 90.17634613431801 113.49611631667375 1.1727192416531977 C 0.0 **** -0.24
33872 H 89.46164488884665 113.71414669129001 1.9665832622068748 H 0.0 **** 0.06
33873 H 90.60959059408975 114.4278305727521 0.8094962281736215 H 0.0 **** 0.06
33874 H 89.66528004832085 112.98950804790968 0.35364493481706205 H 0.0 **** 0.06
33875 H 90.96633510377046 112.85448247546697 1.5617200114829473 H 0.0 **** 0.06
33876 C 1.30052066963907 57.64861935931343 124.43687550408896 C 0.0 **** -0.24
33877 H 1.352345500239096 58.6477565086595 124.86876589718179 H 0.0 **** 0.06
33878 H 1.0513361377367687 57.72296733685306 123.3783663491028 H 0.0 **** 0.06
33879 H 0.5318471319409355 57.07040656614171 124.95181453551345 H 0.0 **** 0.06
33880 H 2.2643598630010615 57.153403460294385 124.55060052921829 H 0.0 **** 0.06
33881 C 109.11719350773512 6.437742528632896 102.59978125602223 C 0.0 **** -0.24
33882 H 110.06597408381643 5.902763600017778 102.6582637065751 H 0.0 **** 0.06
33883 H 109.07837676455568 7.1945804771093265 103.38437338909978 H 0.0 **** 0.06
33884 H 108.29551041191834 5.734627286477263 102.732027243369 H 0.0 **** 0.06
33885 H 109.03092848843158 6.919323535971273 101.62537257108963 H 0.0 **** 0.06
33886 C 160.10637412007674 159.94978447746578 8.260199721551146 C 0.0 **** -0.24
33887 H 160.63191211180614 159.64355035128543 9.164422398697184 H 0.0 **** 0.06
33888 H 160.11518324821006 161.03808958248166 8.186310384384598 H 0.0 **** 0.06
33889 H 159.07639999348288 159.59734892786054 8.301511094795046 H 0.0 **** 0.06
33890 H 160.6028845240242 159.52212894505453 7.389102509563656 H 0.0 **** 0.06
33891 C 18.577468663123113 165.83055121454066 115.9100485390486 C 0.0 **** -0.24
33892 H 18.82466338222263 165.90408180501305 114.85146638335164 H 0.0 **** 0.06
33893 H 17.70525557188965 165.18834706873707 116.0357042905157 H 0.0 **** 0.06
33894 H 18.35810758353982 166.82297374981803 116.30169936062714 H 0.0 **** 0.06
33895 H 19.422997762560072 165.40403417742576 116.45145226622105 H 0.0 **** 0.06
33896 C 126.96914263378113 138.68720841711126 125.77126756935104 C 0.0 **** -0.24
33897 H 126.596547844854 139.67991068963525 126.02516818868892 H 0.0 **** 0.06
33898 H 127.4164177431993 138.23082184949834 126.65359824855531 H 0.0 **** 0.06
33899 H 127.71872911833961 138.77123866081556 124.98411687364506 H 0.0 **** 0.06
33900 H 126.14259566563427 138.06770129513063 125.42187488685062 H 0.0 **** 0.06
33901 C 70.0737779706213 96.14860352545386 153.52870151579546 C 0.0 **** -0.24
33902 H 69.33462585069607 96.91462280586563 153.76285485586044 H 0.0 **** 0.06
33903 H 69.74046747601291 95.57507454843451 152.6640589313983 H 0.0 **** 0.06
33904 H 70.1892931341648 95.48293240398175 154.38415016667142 H 0.0 **** 0.06
33905 H 71.02925512427565 96.62261939134646 153.30520534558053 H 0.0 **** 0.06
33906 C 122.80247218510169 97.876556513649 17.334630565957355 C 0.0 **** -0.24
33907 H 121.99766277926477 97.25687345216392 16.93977756100059 H 0.0 **** 0.06
33908 H 122.90964851982417 97.69429460937727 18.40403648657192 H 0.0 **** 0.06
33909 H 122.56617747682523 98.92826354793215 17.1676474605651 H 0.0 **** 0.06
33910 H 123.73414961982579 97.62883639705132 16.827936347218042 H 0.0 **** 0.06
33911 C 81.51820610005589 1.133475012095964 80.93827910864002 C 0.0 **** -0.24
33912 H 81.80228110248616 0.940689294798382 79.90352780594856 H 0.0 **** 0.06
33913 H 82.2032540652097 0.6110572136076726 81.60670422743608 H 0.0 **** 0.06
33914 H 80.5018022659026 0.7783139723991255 81.10742419163168 H 0.0 **** 0.06
33915 H 81.56608882599502 2.20460048525203 81.13443121709625 H 0.0 **** 0.06
33916 C 74.32366205335934 128.395269150441 96.70789373888334 C 0.0 **** -0.24
33917 H 73.76582278637846 127.71418174587228 96.06549318273915 H 0.0 **** 0.06
33918 H 73.63036664175756 128.95044289598954 97.33966724818663 H 0.0 **** 0.06
33919 H 74.89277988583885 129.09217712718322 96.09265854045788 H 0.0 **** 0.06
33920 H 75.00798819087592 127.82284020167512 97.33502454960853 H 0.0 **** 0.06
33921 C 76.67689952889981 67.63070509562357 36.464969673696544 C 0.0 **** -0.24
33922 H 77.46736191331814 67.21509703109041 35.84085565210239 H 0.0 **** 0.06
33923 H 76.3569075588913 66.88325865812652 37.19126035948102 H 0.0 **** 0.06
33924 H 75.83090662308683 67.91411931773553 35.83931517686642 H 0.0 **** 0.06
33925 H 77.0514258484277 68.51029065397165 36.9883791318058 H 0.0 **** 0.06
33926 C 77.26236170776566 125.80774543948314 19.86544897387582 C 0.0 **** -0.24
33927 H 76.35518220238941 125.46006735133199 20.36129120894745 H 0.0 **** 0.06
33928 H 78.08823010835457 125.80551872158273 20.576416340139723 H 0.0 **** 0.06
33929 H 77.1064806382383 126.81902826477153 19.491365705453795 H 0.0 **** 0.06
33930 H 77.49676834838235 125.14413557942106 19.032212688353923 H 0.0 **** 0.06
33931 C 96.88894015142364 30.850676113819617 108.60851833231726 C 0.0 **** -0.24
33932 H 97.53962384989231 30.096695064398432 108.16431847069987 H 0.0 **** 0.06
33933 H 96.39426303862584 31.414538827034164 107.81749583768095 H 0.0 **** 0.06
33934 H 97.48425570430715 31.52819193515478 109.22018235303011 H 0.0 **** 0.06
33935 H 96.14019821480213 30.36190212597583 109.23140730274957 H 0.0 **** 0.06
33936 C 32.620519567639064 53.93668853871202 27.1322666548283 C 0.0 **** -0.24
33937 H 33.33784716342552 53.136430335737145 26.951653533246542 H 0.0 **** 0.06
33938 H 33.08738948817603 54.89821633288665 26.91667447513271 H 0.0 **** 0.06
33939 H 32.30451349218072 53.91162515538855 28.17531563810428 H 0.0 **** 0.06
33940 H 31.753378211755262 53.79999554977633 26.486235636103657 H 0.0 **** 0.06
33941 C 103.46090620041505 89.72797032658413 162.08964217870079 C 0.0 **** -0.24
33942 H 103.19271282245458 90.783705719411 162.06219670936838 H 0.0 **** 0.06
33943 H 102.66819236561605 89.13988963793737 161.62556017433212 H 0.0 **** 0.06
33944 H 103.58944508705409 89.41238555703573 163.12470458030182 H 0.0 **** 0.06
33945 H 104.39233080619971 89.57515320346876 161.54422277714582 H 0.0 **** 0.06
33946 C 20.258434592144297 40.16890534970889 97.31650825955029 C 0.0 **** -0.24
33947 H 20.620652218879613 41.19774981436211 97.33599413412944 H 0.0 **** 0.06
33948 H 19.171173235632786 40.169135532709504 97.23610994737678 H 0.0 **** 0.06
33949 H 20.55488503646277 39.66290731739298 98.23505346666698 H 0.0 **** 0.06
33950 H 20.687087465462177 39.64944841607934 96.45982139946435 H 0.0 **** 0.06
33951 C 42.61734921877466 50.42740778938412 33.661169727371714 C 0.0 **** -0.24
33952 H 42.83974661979296 49.64881335496469 32.93172865504232 H 0.0 **** 0.06
33953 H 42.2830105524762 49.96847836011557 34.59147914568939 H 0.0 **** 0.06
33954 H 41.830283423089284 51.074807364294884 33.27198537073332 H 0.0 **** 0.06
33955 H 43.514118323666224 51.01777989420583 33.84777390763463 H 0.0 **** 0.06
33956 C 151.77338663585556 49.16393948443579 169.99281860331246 C 0.0 **** -0.24
33957 H 151.08274721393047 49.88281450504064 170.43363498017771 H 0.0 **** 0.06
33958 H 152.062593325948 49.502646332531526 168.99807022283449 H 0.0 **** 0.06
33959 H 151.28674415317175 48.191501409688385 169.91891688006223 H 0.0 **** 0.06
33960 H 152.66027213228438 49.079952275688356 170.62015537411145 H 0.0 **** 0.06
33961 C 56.283389461230456 7.86089241240893 145.76474333582482 C 0.0 **** -0.24
33962 H 56.61248702295367 8.804639794759368 146.199310764554 H 0.0 **** 0.06
33963 H 56.46893468701187 7.871636556927683 144.6898829882176 H 0.0 **** 0.06
33964 H 55.21722051793731 7.728548463983117 145.9481528290418 H 0.0 **** 0.06
33965 H 56.835275095143174 7.0382766600211255 146.2203415982666 H 0.0 **** 0.06
33966 C 116.76634679210107 116.19763429456603 69.29166339185781 C 0.0 **** -0.24
33967 H 117.11625147233849 117.07618771839012 68.75051484097483 H 0.0 **** 0.06
33968 H 116.18047826958278 115.56736542396575 68.62149814956172 H 0.0 **** 0.06
33969 H 116.14534194332191 116.51109234003962 70.1310913094423 H 0.0 **** 0.06
33970 H 117.62294724740363 115.6350608294832 69.66313202482749 H 0.0 **** 0.06
33971 C 108.82482564032665 50.19771946612755 154.64165629915357 C 0.0 **** -0.24
33972 H 109.80588202808573 50.14456062728655 154.17009964864553 H 0.0 **** 0.06
33973 H 108.76433464235379 49.45646529566908 155.4394484528422 H 0.0 **** 0.06
33974 H 108.05319450184552 49.99475537401847 153.89789141981353 H 0.0 **** 0.06
33975 H 108.6748833159339 51.19336992645924 155.058184356732 H 0.0 **** 0.06
33976 C 32.60453764614442 32.10697195344855 106.73902379029042 C 0.0 **** -0.24
33977 H 32.64301935905911 32.884582428496685 105.9755165409411 H 0.0 **** 0.06
33978 H 32.69972780330437 32.5614502822981 107.72517715960984 H 0.0 **** 0.06
33979 H 33.42162374112567 31.403212621720286 106.58190190379841 H 0.0 **** 0.06
33980 H 31.652214745246965 31.579948634956253 106.67129837763514 H 0.0 **** 0.06
33981 C 101.24116055480084 9.277609996804586 110.58372289283395 C 0.0 **** -0.24
33982 H 101.20974416488139 10.15454128782551 109.9362657615579 H 0.0 **** 0.06
33983 H 102.12966349849009 9.324473538045197 111.21444355207763 H 0.0 **** 0.06
33984 H 101.27601605579648 8.376241821944632 109.97200834662672 H 0.0 **** 0.06
33985 H 100.34981722745266 9.257810374731378 111.21085464527377 H 0.0 **** 0.06
33986 C 169.53856323645294 161.3326495215718 108.65466963656928 C 0.0 **** -0.24
33987 H 168.46283072083813 161.3684327971551 108.82738414923466 H 0.0 **** 0.06
33988 H 169.93980001048655 160.4009436562693 109.05572383148899 H 0.0 **** 0.06
33989 H 170.0152059968799 162.17712804067799 109.15167956980375 H 0.0 **** 0.06
33990 H 169.73601756362746 161.38112570629613 107.58407259900733 H 0.0 **** 0.06
33991 C 5.316222660619417 145.7542559709986 153.64552277256814 C 0.0 **** -0.24
33992 H 5.4044765624609 145.3622071987765 152.63238448511942 H 0.0 **** 0.06
33993 H 4.616390399017831 146.59025925936282 153.65113607142337 H 0.0 **** 0.06
33994 H 6.293612435459465 146.09504667654676 153.98893090168477 H 0.0 **** 0.06
33995 H 4.951873113548913 144.9704183741003 154.30862018568195 H 0.0 **** 0.06
33996 C 158.978154555373 66.75492685923399 82.2777095611885 C 0.0 **** -0.24
33997 H 159.18964146309636 66.18239595037966 81.37362666617668 H 0.0 **** 0.06
33998 H 159.86779838874702 66.78184204846335 82.9063657372518 H 0.0 **** 0.06
33999 H 158.16199559774066 66.28161202983804 82.8228359601996 H 0.0 **** 0.06
34000 H 158.69310920074528 67.7701483267056 82.00572125008314 H 0.0 **** 0.06
34001 C 40.88681036367885 77.83806696842768 166.60094442661216 C 0.0 **** -0.24
34002 H 41.40826763760063 77.7359171332289 167.55267385703982 H 0.0 **** 0.06
34003 H 40.62041234547155 76.84989552930733 166.22567453343166 H 0.0 **** 0.06
34004 H 41.53719019183961 78.33667588051247 165.88154506192356 H 0.0 **** 0.06
34005 H 39.98213136382617 78.42915072388081 166.74287075434657 H 0.0 **** 0.06
34006 C 132.31669861647677 33.455025411924495 148.19957451597736 C 0.0 **** -0.24
34007 H 133.35451783020355 33.41242292646318 147.86891684390267 H 0.0 **** 0.06
34008 H 131.83815960818714 32.492355945716696 148.0177858466499 H 0.0 **** 0.06
34009 H 131.79080978384823 34.23263514641327 147.64635105395706 H 0.0 **** 0.06
34010 H 132.28433768638894 33.681744883478885 149.26546674769847 H 0.0 **** 0.06
34011 C 90.25491133797141 91.12596955645107 90.92713787372122 C 0.0 **** -0.24
34012 H 91.2851130718842 91.00721097064002 91.2603043842534 H 0.0 **** 0.06
34013 H 89.5810653022048 90.98576882782434 91.7721665432307 H 0.0 **** 0.06
34014 H 90.03426322064678 90.38562428858292 90.15886939993271 H 0.0 **** 0.06
34015 H 90.11969432713103 92.12698097466392 90.51585242100947 H 0.0 **** 0.06
34016 C 3.0466300130981665 165.37422023790293 71.57407703749122 C 0.0 **** -0.24
34017 H 3.8987509386731745 165.8756383897907 72.03256579428829 H 0.0 **** 0.06
34018 H 2.12523162939209 165.72324756681382 72.04055333417845 H 0.0 **** 0.06
34019 H 3.140636858240498 164.29702265657554 71.71428149435309 H 0.0 **** 0.06
34020 H 3.022393983478935 165.60056528747842 70.50764619298258 H 0.0 **** 0.06
34021 C 7.640798198283363 149.71149252955829 93.57207257413901 C 0.0 **** -0.24
34022 H 7.0130597492822275 148.88179879546948 93.89906946678374 H 0.0 **** 0.06
34023 H 7.147635269491829 150.23945598412482 92.75585562805293 H 0.0 **** 0.06
34024 H 8.60098301236875 149.32718749486796 93.22937019618553 H 0.0 **** 0.06
34025 H 7.79920254014759 150.39675800930752 94.40424229612816 H 0.0 **** 0.06
34026 C 46.85367955181739 116.09644567562606 87.61026253731896 C 0.0 **** -0.24
34027 H 47.85269414587279 115.65999315318302 87.5904069528013 H 0.0 **** 0.06
34028 H 46.868929749380555 117.00828000955516 88.20872374092289 H 0.0 **** 0.06
34029 H 46.15441580165664 115.38501854971491 88.0487061661973 H 0.0 **** 0.06
34030 H 46.54063308213908 116.33383978563916 86.59381376184479 H 0.0 **** 0.06
34031 C 154.66879940487888 169.58207431926442 129.53041513569156 C 0.0 **** -0.24
34032 H 155.03856312749014 168.55630142748953 129.5290107589679 H 0.0 **** 0.06
34033 H 154.70564950668438 169.98341589099505 128.51758484281646 H 0.0 **** 0.06
34034 H 155.29016844433517 170.19072963819164 130.18597242126685 H 0.0 **** 0.06
34035 H 153.63871720251456 169.59574956948182 129.8895166363771 H 0.0 **** 0.06
34036 C 125.23617887713431 152.25261415928594 88.46050006151822 C 0.0 **** -0.24
34037 H 125.22548637144877 151.86557195718402 87.44192204781913 H 0.0 **** 0.06
34038 H 124.85872973820432 153.27522668924385 88.46539389682474 H 0.0 **** 0.06
34039 H 126.2566358737563 152.23901718032906 88.84280990101438 H 0.0 **** 0.06
34040 H 124.60372552780296 151.62833674688545 89.09269440999404 H 0.0 **** 0.06
34041 C 60.64653149981564 65.49313752871268 27.8618503854819 C 0.0 **** -0.24
34042 H 59.827222327200616 64.77544409273713 27.85740648097253 H 0.0 **** 0.06
34043 H 61.45766849376059 65.11521863888191 28.484498989984687 H 0.0 **** 0.06
34044 H 60.29396225661435 66.44421140751086 28.260774673555275 H 0.0 **** 0.06
34045 H 61.00754190500459 65.63867891952634 26.84333509460076 H 0.0 **** 0.06
34046 C 21.078295810213092 53.15866920312112 95.14294135686725 C 0.0 **** -0.24
34047 H 20.893351454475813 52.88203284696553 94.1039807442665 H 0.0 **** 0.06
34048 H 20.29783916679589 52.73453183177108 95.77451090720984 H 0.0 **** 0.06
34049 H 21.071693790693082 54.24413371891188 95.23557152761617 H 0.0 **** 0.06
34050 H 22.048778568833953 52.77230023776059 95.4535945549149 H 0.0 **** 0.06
34051 C 50.701824699628446 58.02647023150237 28.72756910669341 C 0.0 **** -0.24
34052 H 51.41143779655029 57.69703912293414 29.48668937978192 H 0.0 **** 0.06
34053 H 49.91967221363764 58.62407602216318 29.197164708579976 H 0.0 **** 0.06
34054 H 50.25481198129353 57.15669419492215 28.24713239467411 H 0.0 **** 0.06
34055 H 51.22065234057848 58.627881190154966 27.981622124128307 H 0.0 **** 0.06
34056 C 17.391719882056464 100.9088569446306 60.67184212488718 C 0.0 **** -0.24
34057 H 16.959206010883918 101.85367556839344 60.34537060229893 H 0.0 **** 0.06
34058 H 18.00438497860941 101.07600000875826 61.558531416579626 H 0.0 **** 0.06
34059 H 18.012052172027218 100.49893649311963 59.8736170239557 H 0.0 **** 0.06
34060 H 16.593093827549538 100.20610227791104 60.908420812618374 H 0.0 **** 0.06
34061 C 90.14691449076412 25.416786638937424 170.3057970472057 C 0.0 **** -0.24
34062 H 89.92331841163656 24.69096528252723 171.08764827155454 H 0.0 **** 0.06
34063 H 90.42927689565755 26.365709953704595 170.76128380599772 H 0.0 **** 0.06
34064 H 89.26644716116107 25.560434246141426 169.68059164624933 H 0.0 **** 0.06
34065 H 90.97026766886495 25.048557673996072 169.69395053727698 H 0.0 **** 0.06
34066 C 93.18152084626914 40.335367150350706 30.67297219116341 C 0.0 **** -0.24
34067 H 93.46462341815169 40.55771719816114 31.701987052565514 H 0.0 **** 0.06
34068 H 93.9580841843759 40.695295711145675 29.99760561272106 H 0.0 **** 0.06
34069 H 92.23927682273984 40.83086380939176 30.440149446332555 H 0.0 **** 0.06
34070 H 93.06584545231652 39.25867512852318 30.553027835239064 H 0.0 **** 0.06
34071 C 1.6871376117372776 146.66305084667965 73.67972882561172 C 0.0 **** -0.24
34072 H 2.593692046515642 146.5042171698534 74.26250328078267 H 0.0 **** 0.06
34073 H 1.2908205045102292 147.6574454715095 73.88786651215518 H 0.0 **** 0.06
34074 H 0.9441130415267764 145.9123440201016 73.95045554572252 H 0.0 **** 0.06
34075 H 1.9188440137621683 146.5791066041478 72.6180270369575 H 0.0 **** 0.06
34076 C 139.76518435434755 19.6974713211863 147.91342795738842 C 0.0 **** -0.24
34077 H 139.49456996421293 20.17221532672201 146.9702666944615 H 0.0 **** 0.06
34078 H 140.319557860916 18.78094913770542 147.71175424818748 H 0.0 **** 0.06
34079 H 138.8602766204175 19.45952313109339 148.47209764744375 H 0.0 **** 0.06
34080 H 140.38480701869773 20.37761149277594 148.49704363458892 H 0.0 **** 0.06
34081 C 60.68893567175563 14.985402102328784 101.77118426959083 C 0.0 **** -0.24
34082 H 60.98472590262682 13.942904482408935 101.65635387556785 H 0.0 **** 0.06
34083 H 61.56411378318009 15.585553830977084 102.02157472624174 H 0.0 **** 0.06
34084 H 59.9514219245368 15.06718378982476 102.56943511071722 H 0.0 **** 0.06
34085 H 60.255721778224085 15.344509416829247 100.83827869461726 H 0.0 **** 0.06
34086 C 43.34102005492076 83.9648229476693 120.2574615816784 C 0.0 **** -0.24
34087 H 43.21281419594624 84.68010412456132 119.44535058781008 H 0.0 **** 0.06
34088 H 42.57145246541069 83.19512522584232 120.1879967266708 H 0.0 **** 0.06
34089 H 43.25280003485881 84.4818244713578 121.21396609806231 H 0.0 **** 0.06
34090 H 44.32577755674123 83.50326773985685 120.18372121959771 H 0.0 **** 0.06
34091 C 116.56625530459368 16.89199905356128 153.466523102344 C 0.0 **** -0.24
34092 H 116.15581654201262 15.9526610061275 153.83541903109702 H 0.0 **** 0.06
34093 H 117.2889100743161 16.687249145267543 152.67544927805218 H 0.0 **** 0.06
34094 H 117.06136400949018 17.41788812092304 154.28352143418454 H 0.0 **** 0.06
34095 H 115.76118224665228 17.510987229250134 153.07114836743796 H 0.0 **** 0.06
34096 C 55.03529301210001 25.090735060802956 170.9822102512341 C 0.0 **** -0.24
34097 H 54.53901283088504 25.53572453898486 170.11946489711738 H 0.0 **** 0.06
34098 H 54.9738340368487 24.004213633848742 170.91595932894484 H 0.0 **** 0.06
34099 H 54.54617254660154 25.427807378324346 171.8965617318756 H 0.0 **** 0.06
34100 H 56.0821999519774 25.396209233325422 170.9958709113946 H 0.0 **** 0.06
34101 C 28.107719054797485 38.62693909495188 106.26076174641267 C 0.0 **** -0.24
34102 H 27.547837785673664 38.9857865377801 105.39772082405219 H 0.0 **** 0.06
34103 H 29.17346738507797 38.779692982795936 106.09102687261989 H 0.0 **** 0.06
34104 H 27.91139223129636 37.56434530358867 106.40568039005743 H 0.0 **** 0.06
34105 H 27.798830738248284 39.17732323751116 107.14907164151208 H 0.0 **** 0.06
34106 C 22.959506038484953 83.56238586148288 158.29122985040897 C 0.0 **** -0.24
34107 H 22.763588169875256 84.63497459856768 158.27334678241084 H 0.0 **** 0.06
34108 H 22.371522708218286 83.09987716681911 159.08353564726247 H 0.0 **** 0.06
34109 H 24.020024591077735 83.39109858422421 158.47596819261616 H 0.0 **** 0.06
34110 H 22.682806821020534 83.12669203305711 157.33144414445383 H 0.0 **** 0.06
34111 C 4.805134044055293 68.8269206692141 110.22014368162132 C 0.0 **** -0.24
34112 H 4.269185393356629 67.88053196144429 110.16481211167701 H 0.0 **** 0.06
34113 H 5.655172433407515 68.80322875932197 109.53725814732815 H 0.0 **** 0.06
34114 H 5.160340681827577 68.98485392715412 111.2384646110192 H 0.0 **** 0.06
34115 H 4.136551460259767 69.64058581487161 109.9396075258814 H 0.0 **** 0.06
34116 C 154.01502329103926 82.28433621223024 54.9992354639827 C 0.0 **** -0.24
34117 H 154.319288218993 81.88923072057621 55.968741371007695 H 0.0 **** 0.06
34118 H 152.93199659221222 82.40244095045745 54.97880011696111 H 0.0 **** 0.06
34119 H 154.32121669110842 81.59461588579107 54.213157453802125 H 0.0 **** 0.06
34120 H 154.48974364635188 83.25342968130418 54.837103750597635 H 0.0 **** 0.06
34121 C 161.66182162223933 129.7760532871141 73.41008133320203 C 0.0 **** -0.24
34122 H 161.0429246421528 130.16666323455547 74.21813429852988 H 0.0 **** 0.06
34123 H 161.22853802022436 130.06212939786116 72.45105370180589 H 0.0 **** 0.06
34124 H 161.70490469078243 128.68881567080786 73.47953936694321 H 0.0 **** 0.06
34125 H 162.66819180438998 130.18625705175066 73.49279836316049 H 0.0 **** 0.06
34126 C 145.04293637615254 158.8904179821733 59.114553804105626 C 0.0 **** -0.24
34127 H 144.0678844644935 159.37511339273556 59.05749825085603 H 0.0 **** 0.06
34128 H 145.81840918237333 159.64765570547536 59.236057639917846 H 0.0 **** 0.06
34129 H 145.22382299237978 158.32854519549028 58.19911394122576 H 0.0 **** 0.06
34130 H 145.06102002378583 158.21104209557853 59.96758522885251 H 0.0 **** 0.06
34131 C 158.96219885778552 101.11731247852543 126.29132646931424 C 0.0 **** -0.24
34132 H 159.213730118734 100.22872593051255 125.71162725515592 H 0.0 **** 0.06
34133 H 159.21876963941034 102.0088490020807 125.71876620431232 H 0.0 **** 0.06
34134 H 159.52231462054147 101.11158385316674 127.22618725558124 H 0.0 **** 0.06
34135 H 157.89354209509517 101.11857180749013 126.50714430160502 H 0.0 **** 0.06
34136 C 124.20343527034805 74.42411688151743 2.9397084674071152 C 0.0 **** -0.24
34137 H 124.19795172527787 75.20942907473746 3.695024196782647 H 0.0 **** 0.06
34138 H 125.21054497537756 74.3184794184159 2.533531144216873 H 0.0 **** 0.06
34139 H 123.51356488902499 74.68617180899788 2.137539372985664 H 0.0 **** 0.06
34140 H 123.89390461226924 73.48260836448587 3.3927478167334897 H 0.0 **** 0.06
34141 C 117.54687219207631 136.02546212430838 6.8171013472854725 C 0.0 **** -0.24
34142 H 118.48245631958386 135.68968901812707 6.368863719458915 H 0.0 **** 0.06
34143 H 117.15052810475504 136.86315005816843 6.2432019860555386 H 0.0 **** 0.06
34144 H 117.72935295748019 136.34144321982404 7.843430172579701 H 0.0 **** 0.06
34145 H 116.82767561262929 135.20672690953953 6.810690455569983 H 0.0 **** 0.06
34146 C 75.9601411817119 111.6775428180627 45.9785492280012 C 0.0 **** -0.24
34147 H 76.46159691243214 111.34482878533998 46.88686782978425 H 0.0 **** 0.06
34148 H 75.8206868860707 110.82920231655913 45.308151517090124 H 0.0 **** 0.06
34149 H 76.56995225602412 112.43393091733566 45.484452392806844 H 0.0 **** 0.06
34150 H 74.99037320885834 112.10299897882783 46.23428206607491 H 0.0 **** 0.06
34151 C 63.28248882358321 38.183634707734484 93.31898408107779 C 0.0 **** -0.24
34152 H 63.99381285764912 38.07566160408558 94.13786875887527 H 0.0 **** 0.06
34153 H 63.34293292222037 39.19639870582853 92.91783468181174 H 0.0 **** 0.06
34154 H 62.27402748616038 37.99778152592501 93.68702684994105 H 0.0 **** 0.06
34155 H 63.5215442384075 37.46759426020435 92.53336792678755 H 0.0 **** 0.06
34156 C 158.04455149491588 67.12141154973892 159.3098344713411 C 0.0 **** -0.24
34157 H 158.9853294367117 66.72206758460766 159.68822109365226 H 0.0 **** 0.06
34158 H 158.23423763598382 67.70620572124017 158.4092223701403 H 0.0 **** 0.06
34159 H 157.58908322870204 67.7572252003178 160.0681456260421 H 0.0 **** 0.06
34160 H 157.37056305880148 66.29718133257319 159.07331732033936 H 0.0 **** 0.06
34161 C 121.75489476727537 92.66771721165006 105.93908766321405 C 0.0 **** -0.24
34162 H 120.90686903458752 93.1905900277441 106.38118556739644 H 0.0 **** 0.06
34163 H 122.32481781186209 92.17186428120357 106.72515877530083 H 0.0 **** 0.06
34164 H 122.3941259543713 93.38316616190596 105.42240259885057 H 0.0 **** 0.06
34165 H 121.3924938100154 91.92437798997264 105.22839324431135 H 0.0 **** 0.06
34166 C 75.757736302225 139.63823702046238 4.749803943563364 C 0.0 **** -0.24
34167 H 74.70824255305786 139.9006044116394 4.614417749618838 H 0.0 **** 0.06
34168 H 75.92806437112097 138.62355836080536 4.388321186338203 H 0.0 **** 0.06
34169 H 76.01119280963763 139.69497345645908 5.808514464421563 H 0.0 **** 0.06
34170 H 76.38148167891052 140.3338226703992 4.189031732202579 H 0.0 **** 0.06
34171 C 148.26968015648131 26.405288847071972 74.16600104083815 C 0.0 **** -0.24
34172 H 147.5878246961374 25.558392668563755 74.24543774089926 H 0.0 **** 0.06
34173 H 149.29727091347388 26.05326969247082 74.2476337050798 H 0.0 **** 0.06
34174 H 148.06227443281597 27.113835802512085 74.96850106548135 H 0.0 **** 0.06
34175 H 148.1278170136456 26.896563436422014 73.20326415146192 H 0.0 **** 0.06
34176 C 114.34995801574564 68.27255933677176 157.1311414110202 C 0.0 **** -0.24
34177 H 113.50398057119838 68.85438374299099 157.49789708657778 H 0.0 **** 0.06
34178 H 114.1262123493778 67.20939124694152 157.22377886998225 H 0.0 **** 0.06
34179 H 115.23596044739767 68.509662887892 157.71860437384888 H 0.0 **** 0.06
34180 H 114.53154365479199 68.51636518941312 156.08478844779384 H 0.0 **** 0.06
34181 C 59.397726534608864 2.735016572826673 15.416392791560327 C 0.0 **** -0.24
34182 H 59.61088576381081 2.0682810016870476 14.58024565469475 H 0.0 **** 0.06
34183 H 60.33013242324972 3.1583136108371477 15.789557706011607 H 0.0 **** 0.06
34184 H 58.90803572434916 2.1736810470268964 16.21212988542564 H 0.0 **** 0.06
34185 H 58.742067393868325 3.5383214905400777 15.081031087029487 H 0.0 **** 0.06
34186 C 112.33518279432204 10.44003326166029 169.64289330873987 C 0.0 **** -0.24
34187 H 112.17521966909175 11.475406816129805 169.34015312638536 H 0.0 **** 0.06
34188 H 113.09898584785682 10.402935712546991 170.41933766558853 H 0.0 **** 0.06
34189 H 112.66152103870488 9.85719015445494 168.78212422217572 H 0.0 **** 0.06
34190 H 111.40325217598635 10.027374161084083 170.02947315533467 H 0.0 **** 0.06
34191 C 9.96317074101566 90.53290255636787 37.75477015692992 C 0.0 **** -0.24
34192 H 9.57126668721395 91.3073606425248 37.094280858901286 H 0.0 **** 0.06
34193 H 10.162893602171835 89.630495017096 37.17655340718693 H 0.0 **** 0.06
34194 H 9.232101718093304 90.31354190042809 38.53192788104285 H 0.0 **** 0.06
34195 H 10.888015090336637 90.88203980065032 38.21455196825546 H 0.0 **** 0.06
34196 C 91.13875632829105 81.37130122453232 148.1118800087315 C 0.0 **** -0.24
34197 H 91.15940741965598 80.71772348301738 148.9836688818983 H 0.0 **** 0.06
34198 H 90.28208784956023 81.11765801376714 147.4874255061584 H 0.0 **** 0.06
34199 H 92.05718191434826 81.24144719450419 147.53879486837303 H 0.0 **** 0.06
34200 H 91.05769114436517 82.40869050531882 148.43658310889072 H 0.0 **** 0.06
34201 C 100.64982146841027 49.00626822375469 108.73857173159169 C 0.0 **** -0.24
34202 H 99.66131478731302 49.18829738650663 109.16074482611575 H 0.0 **** 0.06
34203 H 100.60255714390837 49.0920368114856 107.65301334260326 H 0.0 **** 0.06
34204 H 100.98133380118705 48.00405547004539 109.00954838178225 H 0.0 **** 0.06
34205 H 101.35322190995831 49.74107705933665 109.13130956135618 H 0.0 **** 0.06
34206 C 3.7362702664574456 54.41082564187853 75.57291174252006 C 0.0 **** -0.24
34207 H 4.7572615419947155 54.373080699182694 75.19217385455028 H 0.0 **** 0.06
34208 H 3.3142074023791537 53.4056282753987 75.57764371647832 H 0.0 **** 0.06
34209 H 3.133414522970149 55.055395169993176 74.93332573780037 H 0.0 **** 0.06
34210 H 3.7415935547111445 54.807331351164024 76.58775165274513 H 0.0 **** 0.06
34211 C 56.84115272247891 13.30708368278141 134.9162991656376 C 0.0 **** -0.24
34212 H 56.1358903368869 13.331609610371885 134.0859241810248 H 0.0 **** 0.06
34213 H 56.57769401085446 12.491611369067698 135.59170768432605 H 0.0 **** 0.06
34214 H 56.80139637164089 14.25332102894609 135.45574471244657 H 0.0 **** 0.06
34215 H 57.849612388286346 13.148824712250018 134.53225694732905 H 0.0 **** 0.06
34216 C 75.08210868812773 132.896443084329 94.68964350043726 C 0.0 **** -0.24
34217 H 75.32790585548238 131.85880320840357 94.9171637129354 H 0.0 **** 0.06
34218 H 75.03469585388402 133.47016887935553 95.61531348757345 H 0.0 **** 0.06
34219 H 74.11692988399062 132.93834285824235 94.18466877212953 H 0.0 **** 0.06
34220 H 75.8503743209867 133.31753258593739 94.04002070628493 H 0.0 **** 0.06
34221 C 71.0641291591219 30.580060926862103 85.72899681507879 C 0.0 **** -0.24
34222 H 71.18669989533278 31.394343574442445 86.44260409328008 H 0.0 **** 0.06
34223 H 70.19417132777131 29.983799396230296 86.00467189687888 H 0.0 **** 0.06
34224 H 71.95455378572304 29.951065982393118 85.74068201293487 H 0.0 **** 0.06
34225 H 70.92285142509569 30.99086451019761 84.72939829687171 H 0.0 **** 0.06
34226 C 111.22564604348241 45.94915565206364 103.66894214289823 C 0.0 **** -0.24
34227 H 111.66193869760932 46.32241358523285 104.59575951215777 H 0.0 **** 0.06
34228 H 111.14585190296233 46.76616126460112 102.9507388615526 H 0.0 **** 0.06
34229 H 110.23382797819522 45.54567041636743 103.87172962194921 H 0.0 **** 0.06
34230 H 111.86088468420414 45.16460096642436 103.25776213344702 H 0.0 **** 0.06
34231 C 17.19287114345414 118.4221826771186 157.85769558798478 C 0.0 **** -0.24
34232 H 17.472134855502155 118.74507119036227 158.86015204387624 H 0.0 **** 0.06
34233 H 17.477495536891155 119.18907417904578 157.13676175908938 H 0.0 **** 0.06
34234 H 16.116003678088106 118.26323840460896 157.81466852972858 H 0.0 **** 0.06
34235 H 17.70744157818875 117.49157258880109 157.61984627362483 H 0.0 **** 0.06
34236 C 38.29009500401119 25.2944785194685 88.67080422966184 C 0.0 **** -0.24
34237 H 37.21283324468749 25.265530084154307 88.51115386428349 H 0.0 **** 0.06
34238 H 38.801390673170005 25.23042257617402 87.71055022878092 H 0.0 **** 0.06
34239 H 38.5874244994352 24.454348702717482 89.29789212564681 H 0.0 **** 0.06
34240 H 38.55923184894942 26.22860669721348 89.16449351413247 H 0.0 **** 0.06
34241 C 101.99381227916649 146.28954173200975 137.5310142076144 C 0.0 **** -0.24
34242 H 101.33434946634199 145.66447070973584 136.92889445038213 H 0.0 **** 0.06
34243 H 101.43394977954111 147.14427154233704 137.91210232021263 H 0.0 **** 0.06
34244 H 102.82205958362402 146.64194599347206 136.915925729641 H 0.0 **** 0.06
34245 H 102.38327197887901 145.70769044374669 138.36655439981283 H 0.0 **** 0.06
34246 C 15.087245504326035 53.61691961909281 95.76779292692035 C 0.0 **** -0.24
34247 H 15.30909703650002 53.25120111100716 96.76975750812056 H 0.0 **** 0.06
34248 H 16.015041030253258 53.90375560610141 95.27194437425217 H 0.0 **** 0.06
34249 H 14.42726971514304 54.48282532445239 95.83387240571341 H 0.0 **** 0.06
34250 H 14.595813580985123 52.83035992394039 95.19395868794507 H 0.0 **** 0.06
34251 C 45.14886720344873 138.95562532375243 78.2885905719397 C 0.0 **** -0.24
34252 H 46.13673272127636 139.41269863244437 78.24126336678967 H 0.0 **** 0.06
34253 H 45.24713183207251 137.87147444486757 78.24343427689077 H 0.0 **** 0.06
34254 H 44.54762561442237 139.30259005366202 77.4471618688158 H 0.0 **** 0.06
34255 H 44.66252007485019 139.2385289716441 79.22279302057807 H 0.0 **** 0.06
34256 C 155.06725649186194 140.02729281573733 111.91851428537899 C 0.0 **** -0.24
34257 H 155.9951874869122 139.7675667934058 112.42865609417589 H 0.0 **** 0.06
34258 H 154.56991961288958 139.116370338291 111.58308396954169 H 0.0 **** 0.06
34259 H 155.29012167045295 140.65776572296113 111.05771569600273 H 0.0 **** 0.06
34260 H 154.41470785856774 140.56707765350802 112.60473567435645 H 0.0 **** 0.06
34261 C 88.82197880938071 85.53145165733083 137.64899953097893 C 0.0 **** -0.24
34262 H 89.58596912753512 85.42457656503353 136.87918612330026 H 0.0 **** 0.06
34263 H 89.24171569917928 85.25811654817352 138.61711163569254 H 0.0 **** 0.06
34264 H 87.98106787579536 84.87747439826455 137.41863085818213 H 0.0 **** 0.06
34265 H 88.47933791216815 86.56602914551613 137.67972147961285 H 0.0 **** 0.06
34266 C 172.40674936320605 46.95592732939713 98.03220250175627 C 0.0 **** -0.24
34267 H 172.04025480318745 47.06544294726905 99.05315414965546 H 0.0 **** 0.06
34268 H 173.09042837783858 47.77439693104935 97.80258378497254 H 0.0 **** 0.06
34269 H 171.56504453926948 46.980065477476415 97.34013565419133 H 0.0 **** 0.06
34270 H 172.93097411056155 46.00546833741603 97.9344001808571 H 0.0 **** 0.06
34271 C 52.65630540818913 13.30238454294556 85.22930162338284 C 0.0 **** -0.24
34272 H 52.59368313584821 14.355583127158525 85.50337165590386 H 0.0 **** 0.06
34273 H 53.69515003285443 12.975134395833663 85.28288708444788 H 0.0 **** 0.06
34274 H 52.28526669088154 13.168477161362546 84.21252027720305 H 0.0 **** 0.06
34275 H 52.052787071797695 12.711465687188252 85.91744381554535 H 0.0 **** 0.06
34276 C 7.144390308678112 165.40611365574597 97.8722262406394 C 0.0 **** -0.24
34277 H 7.482490665587051 165.13602368489603 98.87250906744646 H 0.0 **** 0.06
34278 H 6.170696356463111 164.95371536815117 97.68363656006011 H 0.0 **** 0.06
34279 H 7.862590761856637 165.0448332569151 97.13559146572186 H 0.0 **** 0.06
34280 H 7.0625998512805666 166.49103631790783 97.7972105173169 H 0.0 **** 0.06
34281 C 148.50638438175463 123.04378872363341 76.89804258495019 C 0.0 **** -0.24
34282 H 148.77171217882074 123.07737599355144 75.84133674041914 H 0.0 **** 0.06
34283 H 149.14738298729793 123.72702238454917 77.45552957836242 H 0.0 **** 0.06
34284 H 148.64236351801316 122.0297972160744 77.2740865736543 H 0.0 **** 0.06
34285 H 147.46500123406815 123.33989413026248 77.02133853839808 H 0.0 **** 0.06
34286 C 124.21976953233349 128.21659984429573 6.681977887012295 C 0.0 **** -0.24
34287 H 124.48816361992968 129.0855760937509 7.282890593483785 H 0.0 **** 0.06
34288 H 124.227274154609 128.4889983979477 5.626882689253534 H 0.0 **** 0.06
34289 H 123.2232537082183 127.8758559834919 6.962792801092007 H 0.0 **** 0.06
34290 H 124.94017994488567 127.41794763570186 6.8578035461219145 H 0.0 **** 0.06
34291 C 132.68906908433522 47.410705480134254 22.443450369269044 C 0.0 **** -0.24
34292 H 132.1212014755554 47.54645168625916 23.364511476693224 H 0.0 **** 0.06
34293 H 132.61574796411188 46.37135994576653 22.122314764836972 H 0.0 **** 0.06
34294 H 133.7338216156387 47.662998332041184 22.621609333815172 H 0.0 **** 0.06
34295 H 132.2845298066545 48.06110158527645 21.668232947490935 H 0.0 **** 0.06
34296 C 77.02625937734058 67.05116713415384 162.07782865421353 C 0.0 **** -0.24
34297 H 76.97631250508977 66.23315866039414 161.35870025767906 H 0.0 **** 0.06
34298 H 76.8786790129692 67.99892138522861 161.5586281706706 H 0.0 **** 0.06
34299 H 78.00346962975391 67.0494501154304 162.56127914311293 H 0.0 **** 0.06
34300 H 76.24754051698233 66.92265323709107 162.82912438771737 H 0.0 **** 0.06
34301 C 41.872749102556654 81.5468312753116 74.82101324509426 C 0.0 **** -0.24
34302 H 41.507229112737434 80.65675979854059 74.3083348818052 H 0.0 **** 0.06
34303 H 42.94912788859099 81.63627104241922 74.66919932956412 H 0.0 **** 0.06
34304 H 41.661133991053205 81.46415666594193 75.88625598261751 H 0.0 **** 0.06
34305 H 41.37449017705771 82.4277399607271 74.417756401455 H 0.0 **** 0.06
34306 C 99.06260272736586 3.4030671867921285 46.74271685290567 C 0.0 **** -0.24
34307 H 99.11704858093913 3.2192242002511193 47.816398198043004 H 0.0 **** 0.06
34308 H 98.02049754191785 3.526315054989709 46.44797810615303 H 0.0 **** 0.06
34309 H 99.4939800917036 2.556543982567831 46.20812239933588 H 0.0 **** 0.06
34310 H 99.61897346892852 4.307823448959823 46.50090112295054 H 0.0 **** 0.06
34311 C 149.1157652823694 108.80828019449717 141.9284897434988 C 0.0 **** -0.24
34312 H 149.5708446912243 107.81725881899479 141.94753157406177 H 0.0 **** 0.06
34313 H 149.84880403473372 109.53760917293783 141.5826044501968 H 0.0 **** 0.06
34314 H 148.78230723312228 109.07431487502566 142.9307503973568 H 0.0 **** 0.06
34315 H 148.26161350475505 108.80180108163103 141.25102907307053 H 0.0 **** 0.06
34316 C 113.0273064749419 27.629684604887473 126.07169173200535 C 0.0 **** -0.24
34317 H 114.09968338389623 27.43336052327129 126.0446207568126 H 0.0 **** 0.06
34318 H 112.79535976132013 28.47002192055905 125.4169428346548 H 0.0 **** 0.06
34319 H 112.7284170282139 27.86925104419595 127.0919074885285 H 0.0 **** 0.06
34320 H 112.48895479456655 26.74546485206713 125.73264742735122 H 0.0 **** 0.06
34321 C 127.93341290150948 122.56009566384614 146.60369948868004 C 0.0 **** -0.24
34322 H 128.54250917172587 123.12762587930487 147.30617748136103 H 0.0 **** 0.06
34323 H 128.45459288494874 122.48447666798802 145.64942365110375 H 0.0 **** 0.06
34324 H 126.97947685278135 123.06702396449512 146.45820413142718 H 0.0 **** 0.06
34325 H 127.75584737343968 121.56021725238045 147.00164028023056 H 0.0 **** 0.06
34326 C 77.30861875893451 33.60642575488174 55.1759111962009 C 0.0 **** -0.24
34327 H 78.3048238444664 33.4973221403113 54.745811152360545 H 0.0 **** 0.06
34328 H 77.37451709098612 33.55176794018274 56.262499487780474 H 0.0 **** 0.06
34329 H 76.66636606651682 32.80639832383298 54.80995801937382 H 0.0 **** 0.06
34330 H 76.89235804217417 34.570461545772474 54.88560246144701 H 0.0 **** 0.06
34331 C 19.16940432755885 133.4600035743751 151.3870845884319 C 0.0 **** -0.24
34332 H 18.34970055418291 134.09859567461194 151.71651598078068 H 0.0 **** 0.06
34333 H 19.277624485736574 133.5368822008686 150.3053580751939 H 0.0 **** 0.06
34334 H 18.95748747041513 132.42688889258105 151.66055205391854 H 0.0 **** 0.06
34335 H 20.093777044744606 133.78059674445856 151.8679996493477 H 0.0 **** 0.06
34336 C 21.968453330142097 55.66528235005539 149.05901442727261 C 0.0 **** -0.24
34337 H 22.57065987490722 55.118499568367966 149.78387649876615 H 0.0 **** 0.06
34338 H 21.758454380502513 55.02333293968606 148.2033768950148 H 0.0 **** 0.06
34339 H 22.515108619523744 56.54826787561365 148.725719088921 H 0.0 **** 0.06
34340 H 21.03120585774954 55.97280062662196 149.52358723142692 H 0.0 **** 0.06
34341 C 66.87976943438036 170.0716897872333 113.09741877996333 C 0.0 **** -0.24
34342 H 67.76087240577942 169.72927121345225 112.55600283945017 H 0.0 **** 0.06
34343 H 66.74473069725423 169.4652911905724 113.99295239842166 H 0.0 **** 0.06
34344 H 66.00125348196087 169.97727569490567 112.45894881794791 H 0.0 **** 0.06
34345 H 67.01109694359428 171.11560480158832 113.38125270710162 H 0.0 **** 0.06
34346 C 108.24647488653002 168.10967554038277 162.80705377327104 C 0.0 **** -0.24
34347 H 107.58952695374205 168.92030085434212 163.1210413145526 H 0.0 **** 0.06
34348 H 107.74181271709276 167.15431784412786 162.9551179007198 H 0.0 **** 0.06
34349 H 109.1608297596384 168.13290247099815 163.39871146144432 H 0.0 **** 0.06
34350 H 108.49266610930516 168.23046869796082 161.75151120408373 H 0.0 **** 0.06
34351 C 51.68357370074507 138.06629624331714 113.28776284150271 C 0.0 **** -0.24
34352 H 51.58872202713573 136.9897657921598 113.4286192331295 H 0.0 **** 0.06
34353 H 52.702020680904226 138.3036472781872 112.98029346091263 H 0.0 **** 0.06
34354 H 51.45939600077246 138.57574819091178 114.22578112537246 H 0.0 **** 0.06
34355 H 50.98429572716128 138.3955713428774 112.51931999763937 H 0.0 **** 0.06
34356 C 19.796251574404096 162.37218372813726 136.72748754838221 C 0.0 **** -0.24
34357 H 20.251685641509425 161.49486716387108 136.26752922706626 H 0.0 **** 0.06
34358 H 18.712542590309113 162.3169838745119 136.62056224085018 H 0.0 **** 0.06
34359 H 20.164867282058367 163.27282958821735 136.236372812818 H 0.0 **** 0.06
34360 H 20.05591205279552 162.4027441553782 137.7860184652721 H 0.0 **** 0.06
34361 C 21.113825200582852 73.31203478142014 115.16461369574426 C 0.0 **** -0.24
34362 H 20.05191746247209 73.55580504494962 115.20009898517608 H 0.0 **** 0.06
34363 H 21.613954375545177 73.74263567543562 116.03253125155564 H 0.0 **** 0.06
34364 H 21.550132209414556 73.72009567868254 114.25315460717479 H 0.0 **** 0.06
34365 H 21.237444225747595 72.22891629466254 115.17371735807848 H 0.0 **** 0.06
34366 C 94.35496810415668 97.87968458399308 94.61957941897506 C 0.0 **** -0.24
34367 H 94.93667097481807 98.61064432422631 95.18235988216153 H 0.0 **** 0.06
34368 H 93.49858198744329 97.56167349915748 95.21469871003904 H 0.0 **** 0.06
34369 H 94.98059480414412 97.01652325762876 94.39148743630926 H 0.0 **** 0.06
34370 H 94.0057543141748 98.33013164014989 93.69116931181694 H 0.0 **** 0.06
34371 C 105.95864681196602 107.77601287063652 115.35714927003616 C 0.0 **** -0.24
34372 H 106.04640472662228 108.46208965702647 114.51467946157643 H 0.0 **** 0.06
34373 H 106.87836822146025 107.19789041181718 115.45264884138433 H 0.0 **** 0.06
34374 H 105.12070392503574 107.0997280583089 115.18876652399558 H 0.0 **** 0.06
34375 H 105.78847907474082 108.34427694008423 116.27172954545443 H 0.0 **** 0.06
34376 C 107.30413146097726 101.56911321171884 137.59227967924835 C 0.0 **** -0.24
34377 H 106.24088853351117 101.52069602093786 137.82885621502692 H 0.0 **** 0.06
34378 H 107.72890689510587 102.47884025486653 138.01825122909432 H 0.0 **** 0.06
34379 H 107.43646469954282 101.57698901819342 136.51031106869232 H 0.0 **** 0.06
34380 H 107.810035167504 100.70032044555279 138.0138894100887 H 0.0 **** 0.06
34381 C 105.66560632082309 88.14616701814361 106.92252973781171 C 0.0 **** -0.24
34382 H 105.73685480398694 87.580853678224 105.9929778653036 H 0.0 **** 0.06
34383 H 104.74940072924468 88.73667734340148 106.9190575639725 H 0.0 **** 0.06
34384 H 106.52628475516076 88.81026890889893 107.00913533697042 H 0.0 **** 0.06
34385 H 105.65171044980042 87.4576118991319 107.76628081793524 H 0.0 **** 0.06
34386 C 109.09695486227685 160.42961744131014 82.05984454056424 C 0.0 **** -0.24
34387 H 108.10459692446824 160.21087822969292 82.45609838405711 H 0.0 **** 0.06
34388 H 109.57856728473263 159.50015378660495 81.75515783184765 H 0.0 **** 0.06
34389 H 109.69596547591345 160.91475949980975 82.82952409103126 H 0.0 **** 0.06
34390 H 109.00601049105302 161.09072555614577 81.19869163090881 H 0.0 **** 0.06
34391 C 89.17802757859215 8.379676123534978 79.18781880269995 C 0.0 **** -0.24
34392 H 88.4274853408977 8.039694449805552 78.47462950084682 H 0.0 **** 0.06
34393 H 89.56555210695836 9.34862491090928 78.87313615104324 H 0.0 **** 0.06
34394 H 89.99392854423945 7.657845890222347 79.22878125103313 H 0.0 **** 0.06
34395 H 88.72464137200939 8.471911650538686 80.17532261117697 H 0.0 **** 0.06
34396 C 94.49016874992913 123.99576893713589 118.46990065897344 C 0.0 **** -0.24
34397 H 94.59466296196175 124.0536022157701 119.55285330205598 H 0.0 **** 0.06
34398 H 93.68847991102538 124.66032961839181 118.14633255521235 H 0.0 **** 0.06
34399 H 94.25340146399023 122.9725090690809 118.18095838448079 H 0.0 **** 0.06
34400 H 95.42554818815603 124.29919946728748 117.99881528673191 H 0.0 **** 0.06
34401 C 67.94707058489008 49.23960434448027 82.69472263370702 C 0.0 **** -0.24
34402 H 68.42895544583982 49.97160844985673 82.04630905723585 H 0.0 **** 0.06
34403 H 66.88713128575341 49.178991247316304 82.44743954699969 H 0.0 **** 0.06
34404 H 68.06256460902154 49.54458581387564 83.73460609245448 H 0.0 **** 0.06
34405 H 68.41044144070993 48.263550224896136 82.5484762333277 H 0.0 **** 0.06
34406 C 116.18878159813772 45.73618005428571 125.01871248772642 C 0.0 **** -0.24
34407 H 116.16703788958881 45.05584024205385 125.87022240808977 H 0.0 **** 0.06
34408 H 115.17347641062034 45.890694261888854 124.6518460888812 H 0.0 **** 0.06
34409 H 116.80070114248255 45.30652081585666 124.22666542643472 H 0.0 **** 0.06
34410 H 116.61296014822386 46.691706382920444 125.32896111213563 H 0.0 **** 0.06
34411 C 2.7117963497242386 159.38397508046572 26.54283159086382 C 0.0 **** -0.24
34412 H 2.107105044553407 159.99542748561498 25.871959316581794 H 0.0 **** 0.06
34413 H 2.4905986109481546 158.33111908241185 26.372226933533398 H 0.0 **** 0.06
34414 H 2.4801411832334566 159.6419090472467 27.57615832215776 H 0.0 **** 0.06
34415 H 3.768133073067702 159.5699960158079 26.35080007810295 H 0.0 **** 0.06
34416 C 110.58381138755021 145.49693388654558 80.80644890830885 C 0.0 **** -0.24
34417 H 111.08331879741996 144.5280659986952 80.8017000028415 H 0.0 **** 0.06
34418 H 111.31897931285897 146.28278547894465 80.985540050924 H 0.0 **** 0.06
34419 H 109.83345861829622 145.51439185883322 81.59627490151705 H 0.0 **** 0.06
34420 H 110.10226700875859 145.66208560518675 79.8426221050638 H 0.0 **** 0.06
34421 C 67.78674451238552 123.09817496387024 60.5075511809647 C 0.0 **** -0.24
34422 H 67.8631603591545 122.1650684396856 61.066410768712785 H 0.0 **** 0.06
34423 H 66.86797812176127 123.09583688165483 59.921798661680725 H 0.0 **** 0.06
34424 H 68.64367729304067 123.19355430313692 59.84188449819908 H 0.0 **** 0.06
34425 H 67.77271796838369 123.9370894139978 61.20403091013401 H 0.0 **** 0.06
34426 C 116.28774504094861 81.29854302412383 116.86159689550158 C 0.0 **** -0.24
34427 H 115.79698482785892 80.32529095370174 116.83808051630015 H 0.0 **** 0.06
34428 H 117.30721444605192 81.19968692959007 116.48764126597598 H 0.0 **** 0.06
34429 H 116.3115031328648 81.6693035680988 117.88637558371667 H 0.0 **** 0.06
34430 H 115.736645834457 81.99816866170725 116.23388614057382 H 0.0 **** 0.06
34431 C 83.35116968673364 25.42984507997565 90.04801447269253 C 0.0 **** -0.24
34432 H 83.1254143966781 24.375070247634333 90.20848820768308 H 0.0 **** 0.06
34433 H 82.99451710080079 25.73216494018738 89.06364218250253 H 0.0 **** 0.06
34434 H 84.42829646660493 25.583500023788346 90.10800800596903 H 0.0 **** 0.06
34435 H 82.85501919142861 26.02667303627382 90.8136692744131 H 0.0 **** 0.06
34436 C 103.53665049546876 86.68462570477209 58.875981414414696 C 0.0 **** -0.24
34437 H 103.45795562748683 86.98586407444861 57.83180723199246 H 0.0 **** 0.06
34438 H 103.5917871710952 85.59768794968124 58.93822653824344 H 0.0 **** 0.06
34439 H 102.66193649606146 87.03629049654609 59.421815125421176 H 0.0 **** 0.06
34440 H 104.43618229155615 87.11925684018513 59.312316742674966 H 0.0 **** 0.06
34441 C 123.04842883521542 144.53272234314267 143.17542151636383 C 0.0 **** -0.24
34442 H 123.29415517746725 144.61285716985142 142.11657159523102 H 0.0 **** 0.06
34443 H 123.28579651091502 145.47169902208432 143.67523104043195 H 0.0 **** 0.06
34444 H 123.62942936643762 143.72588304344322 143.62249077400526 H 0.0 **** 0.06
34445 H 121.98574035104258 144.31976175217108 143.28665158151784 H 0.0 **** 0.06
34446 C 157.28280335524192 44.27794734045493 77.14167432652636 C 0.0 **** -0.24
34447 H 157.94972526348897 45.08828899535857 77.4351410887459 H 0.0 **** 0.06
34448 H 157.61899756453343 43.34807344408773 77.60128089592236 H 0.0 **** 0.06
34449 H 157.2942882935875 44.17337736245253 76.0572203749405 H 0.0 **** 0.06
34450 H 156.26987462080342 44.5020169409475 77.47484448402801 H 0.0 **** 0.06
34451 C 100.6419132508129 76.2023893681415 14.021659751818738 C 0.0 **** -0.24
34452 H 99.8272811061073 76.9148366943196 14.15537769660257 H 0.0 **** 0.06
34453 H 100.5242058374127 75.69153697924014 13.065296837237497 H 0.0 **** 0.06
34454 H 100.6208947237501 75.47121528422491 14.828893191353814 H 0.0 **** 0.06
34455 H 101.59436498351099 76.73312091034333 14.036149005840514 H 0.0 **** 0.06
34456 C 28.27195264668228 46.65833468533151 26.940182889268982 C 0.0 **** -0.24
34457 H 27.304040956189965 47.10652111858553 27.161142211388295 H 0.0 **** 0.06
34458 H 28.868455320916496 47.35397495678501 26.348799430382172 H 0.0 **** 0.06
34459 H 28.125284381961393 45.73604247145818 26.377988367758718 H 0.0 **** 0.06
34460 H 28.79127123641382 46.43612256492054 27.87280670517788 H 0.0 **** 0.06
34461 C 11.734190708247041 4.640155281615307 44.43747236894761 C 0.0 **** -0.24
34462 H 12.445931948480563 5.213683139422059 45.03078963015193 H 0.0 **** 0.06
34463 H 11.375762663439673 3.7909116110891645 45.020140147431206 H 0.0 **** 0.06
34464 H 12.222808058061787 4.278751103138745 43.53200766966597 H 0.0 **** 0.06
34465 H 10.891336999233403 5.276244166418934 44.166661091914804 H 0.0 **** 0.06
34466 C 92.81241045083726 29.200743469065202 163.05657877349825 C 0.0 **** -0.24
34467 H 92.78516496096341 30.285681760131567 162.95127067408464 H 0.0 **** 0.06
34468 H 93.39319825886093 28.935959951484875 163.9410828393597 H 0.0 **** 0.06
34469 H 93.27524652658849 28.761064683556384 162.17265369823244 H 0.0 **** 0.06
34470 H 91.79603205693621 28.820267481087996 163.16130788231598 H 0.0 **** 0.06
34471 C 123.02064616356236 72.52925983957584 62.81115808477695 C 0.0 **** -0.24
34472 H 122.06880856678285 72.78035333376096 63.28092342704295 H 0.0 **** 0.06
34473 H 122.84052905913336 71.88329909233897 61.950941966130316 H 0.0 **** 0.06
34474 H 123.65441693096886 72.01012329334412 63.528847428376054 H 0.0 **** 0.06
34475 H 123.5152626246568 73.44350129033512 62.4828163170766 H 0.0 **** 0.06
34476 C 112.70644476777815 97.38954461779974 88.2664483398585 C 0.0 **** -0.24
34477 H 112.89663999063819 96.9281154234715 87.29691180703199 H 0.0 **** 0.06
34478 H 111.73150012785757 97.06836520327778 88.63517582805417 H 0.0 **** 0.06
34479 H 112.71589317764278 98.47436030486341 88.15960806654289 H 0.0 **** 0.06
34480 H 113.48044908107707 97.08669721203071 88.97079479106932 H 0.0 **** 0.06
34481 C 147.03322006552634 85.42108155200367 148.9143319806845 C 0.0 **** -0.24
34482 H 145.97881097879892 85.5689003219768 149.15031144581206 H 0.0 **** 0.06
34483 H 147.42198313052478 84.58740236989263 149.4987671567337 H 0.0 **** 0.06
34484 H 147.59005827721742 86.32712718444708 149.15637277057957 H 0.0 **** 0.06
34485 H 147.14035874671222 85.20267548679499 147.85209741973128 H 0.0 **** 0.06
34486 C 152.3643296864981 132.75049292182854 154.5175555942666 C 0.0 **** -0.24
34487 H 153.16745046077406 132.06292396470153 154.25444325162943 H 0.0 **** 0.06
34488 H 152.4384806728435 133.64785183631466 153.90285663631738 H 0.0 **** 0.06
34489 H 152.44831952842463 133.02218083366216 155.5695430250359 H 0.0 **** 0.06
34490 H 151.4013496683248 132.26898218895045 154.3431648679234 H 0.0 **** 0.06
34491 C 137.97758060962798 29.368534500348744 40.98506080426884 C 0.0 **** -0.24
34492 H 137.11000053268776 29.66973800327179 40.39728323813418 H 0.0 **** 0.06
34493 H 138.8566881657331 29.331796122097842 40.34185681214865 H 0.0 **** 0.06
34494 H 137.800252052314 28.382583970188875 41.41426740994012 H 0.0 **** 0.06
34495 H 138.1422703936593 30.089485305980105 41.78614345327705 H 0.0 **** 0.06
34496 C 91.45293540037208 171.16871804496418 7.175358953760167 C 0.0 **** -0.24
34497 H 91.99307316668742 171.95837822928593 7.6975899083118975 H 0.0 **** 0.06
34498 H 90.85693070165375 171.60536056714795 6.374189257545112 H 0.0 **** 0.06
34499 H 90.79843072053694 170.65166328470906 7.876637192072337 H 0.0 **** 0.06
34500 H 92.16629686441337 170.45937612357022 6.753247943991596 H 0.0 **** 0.06
34501 C 34.6268007080439 132.0441576310799 100.27430289767392 C 0.0 **** -0.24
34502 H 33.5723626625518 132.22318911924 100.48609604562841 H 0.0 **** 0.06
34503 H 34.94275989285023 132.67669275249557 99.44327800838056 H 0.0 **** 0.06
34504 H 34.77048133530698 130.9968197454658 100.00842431653794 H 0.0 **** 0.06
34505 H 35.220018649520995 132.28076032937892 101.15773644288788 H 0.0 **** 0.06
34506 C 112.56856472807641 140.90562223312014 148.27447527878923 C 0.0 **** -0.24
34507 H 112.18805047035988 141.67543305075097 148.94609302723143 H 0.0 **** 0.06
34508 H 112.8032164651728 141.35110352859328 147.30761273981912 H 0.0 **** 0.06
34509 H 111.81309710279032 140.13133056037333 148.14530784753373 H 0.0 **** 0.06
34510 H 113.47008524239305 140.4663270439964 148.7013484210278 H 0.0 **** 0.06
34511 C 146.3870794896678 110.58681500341876 113.94602363174471 C 0.0 **** -0.24
34512 H 147.47151468386014 110.59959352018868 113.84182106977295 H 0.0 **** 0.06
34513 H 146.09181436961143 111.24511467055578 114.76325202730783 H 0.0 **** 0.06
34514 H 146.05515191940003 109.57097405081348 114.15985867244262 H 0.0 **** 0.06
34515 H 145.92894250300319 110.93100505362199 113.01822897487028 H 0.0 **** 0.06
34516 C 107.41234215228846 146.87541981213147 56.68733230558787 C 0.0 **** -0.24
34517 H 107.17397771186162 146.36634759422972 57.620644164470576 H 0.0 **** 0.06
34518 H 106.97739794850682 147.8757930361642 56.69847643287355 H 0.0 **** 0.06
34519 H 107.00273215184822 146.31007674070747 55.85061310113264 H 0.0 **** 0.06
34520 H 108.49516310153629 146.95072494514855 56.58022415047009 H 0.0 **** 0.06
34521 C 30.53218962979679 127.08347274398392 153.45960175515933 C 0.0 **** -0.24
34522 H 30.628287128385068 126.23700059523838 154.1395292187533 H 0.0 **** 0.06
34523 H 30.24048017134254 127.9710574677161 154.0223665168832 H 0.0 **** 0.06
34524 H 29.771858889182198 126.8627641227626 152.71042350275525 H 0.0 **** 0.06
34525 H 31.487275583330984 127.26413310364637 152.96645285410372 H 0.0 **** 0.06
34526 C 103.21946607318418 3.7572282490217503 23.217788418977904 C 0.0 **** -0.24
34527 H 104.1378209730131 3.197985260409922 23.0359347049663 H 0.0 **** 0.06
34528 H 103.40046587261395 4.818061815761553 23.03979558484641 H 0.0 **** 0.06
34529 H 102.9036706674047 3.610609744064732 24.250410539979335 H 0.0 **** 0.06
34530 H 102.43907070627941 3.4029811636066825 22.544331473507874 H 0.0 **** 0.06
34531 C 82.21268692659706 136.38943015383714 57.52439706284713 C 0.0 **** -0.24
34532 H 82.65793646106084 135.47366220313918 57.13608135959288 H 0.0 **** 0.06
34533 H 82.85172002906386 136.80107239924013 58.305927327601694 H 0.0 **** 0.06
34534 H 81.2286042040056 136.1676778228149 57.93822106467735 H 0.0 **** 0.06
34535 H 82.1114819830206 137.11480153492263 56.716502186155935 H 0.0 **** 0.06
34536 C 143.9835141781694 138.28816578546764 134.89583929406643 C 0.0 **** -0.24
34537 H 143.85952862812255 138.9702661930782 134.05442392898183 H 0.0 **** 0.06
34538 H 143.00444501011793 138.00197404479792 135.27863951151082 H 0.0 **** 0.06
34539 H 144.55064234572043 138.7845253678242 135.6837193674395 H 0.0 **** 0.06
34540 H 144.5207380368942 137.3989436439001 134.56637808680054 H 0.0 **** 0.06
34541 C 130.38935538496406 133.80791489115524 122.77536390525839 C 0.0 **** -0.24
34542 H 130.7405922296353 133.2241299429977 121.9246965260671 H 0.0 **** 0.06
34543 H 129.29967295019247 133.7744133795572 122.81323311557753 H 0.0 **** 0.06
34544 H 130.71719774384783 134.84169774771115 122.6663383236708 H 0.0 **** 0.06
34545 H 130.79873723319227 133.39230534504705 123.69633806567481 H 0.0 **** 0.06
34546 C 119.14183260721018 95.86587154239285 56.61397886689093 C 0.0 **** -0.24
34547 H 118.4399067049929 96.6699702231875 56.83394366402217 H 0.0 **** 0.06
34548 H 119.73830336854817 95.65209016681294 57.50171890773322 H 0.0 **** 0.06
34549 H 119.79865154445594 96.16994119588273 55.798890087469516 H 0.0 **** 0.06
34550 H 118.59081367446058 94.97178897971088 56.32303268735919 H 0.0 **** 0.06
34551 C 34.70910161405298 135.71251876793647 142.46135139285786 C 0.0 **** -0.24
34552 H 35.62322944892492 135.1480619008621 142.2765435469218 H 0.0 **** 0.06
34553 H 33.93475627851562 135.38687882436204 141.76663050018635 H 0.0 **** 0.06
34554 H 34.903762150698114 136.77486866704834 142.3182565979468 H 0.0 **** 0.06
34555 H 34.37606221222339 135.53765257634888 143.48442409741335 H 0.0 **** 0.06
34556 C 109.24221557220483 109.52681957257678 116.01951657080289 C 0.0 **** -0.24
34557 H 108.97938070302365 109.09981616601314 116.98714516517072 H 0.0 **** 0.06
34558 H 108.46564668508734 110.2248702903861 115.70827692221252 H 0.0 **** 0.06
34559 H 109.32952126775018 108.72836105980645 115.2819550931398 H 0.0 **** 0.06
34560 H 110.19311209204847 110.05267708454585 116.1003116640384 H 0.0 **** 0.06
34561 C 133.25278567435532 22.146667474580994 142.08742388024706 C 0.0 **** -0.24
34562 H 134.16740948168007 22.12962383143725 142.68071555423546 H 0.0 **** 0.06
34563 H 132.5728794256216 22.89729925814774 142.49082394620888 H 0.0 **** 0.06
34564 H 132.77790945424684 21.166451412540866 142.12445388336712 H 0.0 **** 0.06
34565 H 133.4961494339681 22.394027144383294 141.05414054115113 H 0.0 **** 0.06
34566 C 143.49147776726548 144.7804667405726 15.074832026190336 C 0.0 **** -0.24
34567 H 142.899002176297 143.87050761941993 15.168353406016081 H 0.0 **** 0.06
34568 H 143.63825118922398 145.22023132845072 16.0613384152459 H 0.0 **** 0.06
34569 H 142.96830254292706 145.49106761674028 14.434541248956975 H 0.0 **** 0.06
34570 H 144.46016403590224 144.54103056649177 14.636106122908302 H 0.0 **** 0.06
34571 C 35.72527846611112 166.72310967138256 120.65355832424748 C 0.0 **** -0.24
34572 H 34.96684202261278 165.96989606748625 120.44034807435452 H 0.0 **** 0.06
34573 H 36.32022714826347 166.4068613656063 121.51092714010923 H 0.0 **** 0.06
34574 H 35.24081462393275 167.67275225208948 120.87892450979027 H 0.0 **** 0.06
34575 H 36.373576233664394 166.84218193309545 119.78518340613641 H 0.0 **** 0.06
34576 C 62.287091307437464 48.378255985320095 14.40826236108019 C 0.0 **** -0.24
34577 H 62.870614806655055 48.29452936591187 13.490943774828871 H 0.0 **** 0.06
34578 H 62.36533589347317 49.39367692978891 14.796987561038613 H 0.0 **** 0.06
34579 H 62.66998263100507 47.67534590851221 15.147549057157335 H 0.0 **** 0.06
34580 H 61.242325065331826 48.14889998241733 14.19627996668541 H 0.0 **** 0.06
34581 C 144.48824702882288 11.432116335761549 45.92253078773513 C 0.0 **** -0.24
34582 H 145.52393568368174 11.440879165067997 45.5837692331703 H 0.0 **** 0.06
34583 H 143.99210058712532 12.345998352451488 45.596995027810976 H 0.0 **** 0.06
34584 H 144.46298716184452 11.372061593384785 47.01061008341918 H 0.0 **** 0.06
34585 H 143.97565136763038 10.56859651511462 45.49928809469969 H 0.0 **** 0.06
34586 C 116.10860321789647 113.11603982815848 64.7981545909948 C 0.0 **** -0.24
34587 H 116.84912559018767 112.9674012108992 64.01178674879387 H 0.0 **** 0.06
34588 H 115.16564131721145 112.65634204208243 64.49907761787553 H 0.0 **** 0.06
34589 H 115.958718168368 114.18285463803659 64.95817885263949 H 0.0 **** 0.06
34590 H 116.46204688078802 112.65543935216127 65.72070375805242 H 0.0 **** 0.06
34591 C 143.799202827062 22.175186779476228 22.955839911520897 C 0.0 **** -0.24
34592 H 143.41039738117598 21.59991435067554 22.11578269049508 H 0.0 **** 0.06
34593 H 143.40314447042786 23.19020750928032 22.915828678603646 H 0.0 **** 0.06
34594 H 144.88754888996579 22.20627870167742 22.902367199612698 H 0.0 **** 0.06
34595 H 143.4951440608407 21.702387017603293 23.890291016318216 H 0.0 **** 0.06
34596 C 155.52755677616332 26.14144691464594 14.529830421151246 C 0.0 **** -0.24
34597 H 154.4526794520323 26.13738093750146 14.712270566269297 H 0.0 **** 0.06
34598 H 156.01019810772465 26.836223035700414 15.218210193793112 H 0.0 **** 0.06
34599 H 155.71922728147297 26.45469791980895 13.503345437206832 H 0.0 **** 0.06
34600 H 155.92655254341378 25.13872184644171 14.684491384334734 H 0.0 **** 0.06
34601 C 73.35503378058871 14.066823814635242 151.36308046258165 C 0.0 **** -0.24
34602 H 72.3759229660239 13.68418993488634 151.651768045273 H 0.0 **** 0.06
34603 H 74.08949220053313 13.26384528617345 151.42041701415127 H 0.0 **** 0.06
34604 H 73.6422238677751 14.872925436797452 152.03826948437 H 0.0 **** 0.06
34605 H 73.30969352453201 14.447008813010896 150.34269876729923 H 0.0 **** 0.06
34606 C 47.929603516912564 166.23936636873455 167.85436481603705 C 0.0 **** -0.24
34607 H 48.31843168557374 165.22314325904924 167.77990362474543 H 0.0 **** 0.06
34608 H 48.39604438882736 166.86261740873707 167.09029264208925 H 0.0 **** 0.06
34609 H 48.154549330758655 166.6432941743335 168.84118186024352 H 0.0 **** 0.06
34610 H 46.85061740898625 166.22686976313102 167.7038192453744 H 0.0 **** 0.06
34611 C 109.65983493867947 92.93201838400302 137.7929334347214 C 0.0 **** -0.24
34612 H 109.69726610402321 93.68462151926747 137.00485943109197 H 0.0 **** 0.06
34613 H 108.97196437265228 93.25883980235471 138.57375612489096 H 0.0 **** 0.06
34614 H 110.65493605134347 92.79957556170586 138.216601743595 H 0.0 **** 0.06
34615 H 109.31404160072896 91.9870065764434 137.37560047498613 H 0.0 **** 0.06
34616 C 68.59633793369937 63.016395453935004 44.80591119132596 C 0.0 **** -0.24
34617 H 68.54747935675738 64.02871435422534 44.405123890698974 H 0.0 **** 0.06
34618 H 68.86484249285445 63.05570988305773 45.861226708529244 H 0.0 **** 0.06
34619 H 69.3471190542997 62.4456822467189 44.259304997800115 H 0.0 **** 0.06
34620 H 67.62436967159937 62.53556298918605 44.69541673837139 H 0.0 **** 0.06
34621 C 172.00627295520815 8.192217728268247 108.07284370282116 C 0.0 **** -0.24
34622 H 171.90323300613966 8.031537233278044 107.00011460991561 H 0.0 **** 0.06
34623 H 171.41156130968855 7.453517246567458 108.6109049107518 H 0.0 **** 0.06
34624 H 171.65726324065204 9.193872322213224 108.32521743048659 H 0.0 **** 0.06
34625 H 173.05416175275678 8.090998708325003 108.35592314874367 H 0.0 **** 0.06
34626 C 32.28199997190163 105.32035338440804 8.924928428933157 C 0.0 **** -0.24
34627 H 32.82559633113881 105.29921104131341 7.979806629796201 H 0.0 **** 0.06
34628 H 31.962909217588987 104.31034752305939 9.182415203620906 H 0.0 **** 0.06
34629 H 31.40806851866617 105.96459279021113 8.827513885267052 H 0.0 **** 0.06
34630 H 32.93343757404146 105.70768330318776 9.709097290503166 H 0.0 **** 0.06
34631 C 157.52304683780835 85.01260521451162 124.90654522026801 C 0.0 **** -0.24
34632 H 158.048216357938 85.35575195272769 124.01556741110969 H 0.0 **** 0.06
34633 H 156.9804510848376 85.84584002091894 125.35191333955751 H 0.0 **** 0.06
34634 H 158.24415374096094 84.62223716873591 125.62463143101277 H 0.0 **** 0.06
34635 H 156.82070717204644 84.2255778694028 124.63259426315543 H 0.0 **** 0.06
34636 C 64.88318653447779 10.282634773664483 133.98537944111666 C 0.0 **** -0.24
34637 H 64.94935241737255 11.077573730402037 133.24218812590124 H 0.0 **** 0.06
34638 H 64.94073339099518 10.714066345846618 134.98521011222232 H 0.0 **** 0.06
34639 H 65.7063966131447 9.583078871688542 133.84278255675036 H 0.0 **** 0.06
34640 H 63.93567713751682 9.75649925966411 133.87089565478783 H 0.0 **** 0.06
34641 C 54.33943006579162 77.37036848819031 153.5082538186892 C 0.0 **** -0.24
34642 H 53.30708566913451 77.05181872925876 153.65454905785654 H 0.0 **** 0.06
34643 H 55.0104284640412 76.65400434726446 153.98230735289997 H 0.0 **** 0.06
34644 H 54.48227780273626 78.35425119810462 153.95644078381662 H 0.0 **** 0.06
34645 H 54.556490402492585 77.42213347550465 152.44126535309294 H 0.0 **** 0.06
34646 C 123.6586026006895 73.43312782572436 104.67916969681039 C 0.0 **** -0.24
34647 H 123.27536116757145 72.77092422936127 103.90259542748632 H 0.0 **** 0.06
34648 H 123.50464096330651 72.97369677161748 105.65577868619616 H 0.0 **** 0.06
34649 H 123.1290913385177 74.38529218850596 104.63857351822787 H 0.0 **** 0.06
34650 H 124.72330168441994 73.60174142295554 104.52018391665953 H 0.0 **** 0.06
34651 C 56.9383102441103 131.91166255675387 141.45866165301695 C 0.0 **** -0.24
34652 H 56.86854220389304 132.99068061566794 141.32464819727718 H 0.0 **** 0.06
34653 H 57.97200141546553 131.5939085195628 141.32052718200592 H 0.0 **** 0.06
34654 H 56.30408640465987 131.4129156015786 140.72503108392146 H 0.0 **** 0.06
34655 H 56.60780208464551 131.64891219956743 142.46330376677065 H 0.0 **** 0.06
34656 C 51.991317404534655 95.45657388398865 2.6969986551837906 C 0.0 **** -0.24
34657 H 50.91209075756947 95.39235156904462 2.835322624797641 H 0.0 **** 0.06
34658 H 52.23359596517517 96.36856893367965 2.1505992242768173 H 0.0 **** 0.06
34659 H 52.33642490538509 94.59145585259094 2.130085246947516 H 0.0 **** 0.06
34660 H 52.482423495568156 95.47352473067048 3.6699126592240248 H 0.0 **** 0.06
34661 C 18.120008026962125 45.702482100928535 131.72053374088634 C 0.0 **** -0.24
34662 H 17.258052039245882 45.21859329698833 131.26091901860957 H 0.0 **** 0.06
34663 H 17.777765312355598 46.468948568353085 132.41596329663014 H 0.0 **** 0.06
34664 H 18.734389180104273 46.161360645855666 130.94572249157895 H 0.0 **** 0.06
34665 H 18.708205096751783 44.95921544671279 132.2598408014187 H 0.0 **** 0.06
34666 C 60.071391419601696 60.25341070392764 103.53066410431504 C 0.0 **** -0.24
34667 H 60.966172765886625 60.67239731350338 103.99021902814036 H 0.0 **** 0.06
34668 H 60.28494712795825 59.99069991339064 102.49402761223871 H 0.0 **** 0.06
34669 H 59.26801283769947 60.98999543787906 103.56083015647823 H 0.0 **** 0.06
34670 H 59.76604778189119 59.36051553732926 104.07589126805837 H 0.0 **** 0.06
34671 C 166.9617183772558 87.52397469512982 25.076942427044628 C 0.0 **** -0.24
34672 H 166.8248677961455 88.528006104584 25.47941360800843 H 0.0 **** 0.06
34673 H 166.79578211926875 86.790907756482 25.866898900862452 H 0.0 **** 0.06
34674 H 167.9768499602505 87.42198941994508 24.693875794770065 H 0.0 **** 0.06
34675 H 166.2494561609812 87.35631982188596 24.26964041571358 H 0.0 **** 0.06
34676 C 36.5231799142494 8.959541378476125 136.44080268009938 C 0.0 **** -0.24
34677 H 36.02973692435978 7.98903009696437 136.48801538359461 H 0.0 **** 0.06
34678 H 35.901958506938456 9.656459912489439 135.8773288711918 H 0.0 **** 0.06
34679 H 37.48893211748003 8.85244537315041 135.9472854042645 H 0.0 **** 0.06
34680 H 36.67162869560883 9.340499601796537 137.45142525465187 H 0.0 **** 0.06
34681 C 0.18073665683164108 5.509129214325299 56.659364400430206 C 0.0 **** -0.24
34682 H -0.6669516208862092 5.281818830319082 57.30705398974082 H 0.0 **** 0.06
34683 H 0.844898559936496 6.2107883992729 57.164428308759284 H 0.0 **** 0.06
34684 H -0.18044272550247342 5.9534263462204535 55.73169435870433 H 0.0 **** 0.06
34685 H 0.7225891645198885 4.590400039553202 56.43564194369539 H 0.0 **** 0.06
34686 C 112.69177363024195 70.99829658476484 168.27926430101078 C 0.0 **** -0.24
34687 H 112.98516531287586 71.0072635444313 169.3295352806427 H 0.0 **** 0.06
34688 H 112.7380944290212 72.01156284987337 167.8802604872766 H 0.0 **** 0.06
34689 H 111.67296926475166 70.61961664441309 168.19075789929576 H 0.0 **** 0.06
34690 H 113.36928020856607 70.35403192839358 167.71894914656983 H 0.0 **** 0.06
34691 C 30.939776996181337 44.65150073553434 113.74421140129527 C 0.0 **** -0.24
34692 H 31.732901432339276 43.99045878122752 113.39468121519567 H 0.0 **** 0.06
34693 H 30.266196427019295 44.87927059591094 112.91832685692225 H 0.0 **** 0.06
34694 H 31.377724212264425 45.57597723907914 114.12033320377537 H 0.0 **** 0.06
34695 H 30.383853889736045 44.16217320663799 114.54336672246365 H 0.0 **** 0.06
34696 C 96.5270778855093 134.1369314049757 116.0175526518095 C 0.0 **** -0.24
34697 H 97.37070037298105 134.75126552521309 116.33480478891502 H 0.0 **** 0.06
34698 H 96.72268066990881 133.73735126213506 115.02214797860742 H 0.0 **** 0.06
34699 H 95.62383089590719 134.74630434421033 115.99337264809063 H 0.0 **** 0.06
34700 H 96.3932785853375 133.31483311500062 116.71951510745023 H 0.0 **** 0.06
34701 C 15.04785833060032 55.309455016572116 44.0028983503621 C 0.0 **** -0.24
34702 H 15.84435080790368 55.873703923599805 43.51756743675759 H 0.0 **** 0.06
34703 H 15.192842713018536 54.24428352725094 43.81623427267715 H 0.0 **** 0.06
34704 H 14.084439270194366 55.62204453788233 43.60154606288796 H 0.0 **** 0.06
34705 H 15.073269819882825 55.496425515459634 45.07657403771702 H 0.0 **** 0.06
34706 C 151.31050448814096 86.52899743572345 59.32221515366105 C 0.0 **** -0.24
34707 H 151.8058774631872 87.22544949622221 58.64516984619266 H 0.0 **** 0.06
34708 H 150.36559257457998 86.95826657653146 59.65732066294446 H 0.0 **** 0.06
34709 H 151.9510173137357 86.34241645059677 60.1831576550296 H 0.0 **** 0.06
34710 H 151.11856582471398 85.5907240393658 58.80206444621291 H 0.0 **** 0.06
34711 C 111.02289287276801 134.94001806736776 152.81986302748984 C 0.0 **** -0.24
34712 H 111.65277563904223 134.104421798889 153.12432115226716 H 0.0 **** 0.06
34713 H 111.2474568183141 135.8089452320537 153.4388653025312 H 0.0 **** 0.06
34714 H 109.97503186470763 134.6676071623524 152.94131161746506 H 0.0 **** 0.06
34715 H 111.21744715689996 135.17883709878163 151.77415881805976 H 0.0 **** 0.06
34716 C 96.75456397821299 105.04035197037268 105.46745445412535 C 0.0 **** -0.24
34717 H 96.93463877758688 104.4617145906173 104.56200318203852 H 0.0 **** 0.06
34718 H 97.47316485361515 105.85798028227924 105.52525509786545 H 0.0 **** 0.06
34719 H 96.86656077259721 104.39489075398802 106.33881645151948 H 0.0 **** 0.06
34720 H 95.74270178203125 105.44561733572058 105.44410750775705 H 0.0 **** 0.06
34721 C 55.459413962337294 166.3902742374552 153.64117568076892 C 0.0 **** -0.24
34722 H 55.15195840866218 165.70801372865824 152.84867718578997 H 0.0 **** 0.06
34723 H 55.162606687672536 165.98113944887558 154.60755934540296 H 0.0 **** 0.06
34724 H 54.97909629679725 167.35802425646753 153.49290883574363 H 0.0 **** 0.06
34725 H 56.54178600344537 166.51396072786207 153.61590546184274 H 0.0 **** 0.06
34726 C 36.145452774729165 120.36013512250324 135.00455675547568 C 0.0 **** -0.24
34727 H 36.34027124103608 120.46548184512497 136.0713678874493 H 0.0 **** 0.06
34728 H 35.88198982104842 119.32591101929631 134.78391462308826 H 0.0 **** 0.06
34729 H 37.038171169890234 120.63657614212704 134.44344409502207 H 0.0 **** 0.06
34730 H 35.32018124588251 121.01424300421502 134.7203789730222 H 0.0 **** 0.06
34731 C 165.49888372717766 59.606136072241426 156.25076462580478 C 0.0 **** -0.24
34732 H 165.82586731486492 58.57601838482894 156.1105096503534 H 0.0 **** 0.06
34733 H 164.6720437501064 59.63157950757662 156.96140061054464 H 0.0 **** 0.06
34734 H 165.1700502405346 60.016367501590835 155.29545633864987 H 0.0 **** 0.06
34735 H 166.3275123140888 60.20149416246012 156.63529371151122 H 0.0 **** 0.06
34736 C 107.66498722294455 10.96165649221021 167.70619509462034 C 0.0 **** -0.24
34737 H 106.85082537718574 10.462593653360642 167.18057740137408 H 0.0 **** 0.06
34738 H 107.2769213184313 11.83313378375675 168.23220776701015 H 0.0 **** 0.06
34739 H 108.42136614842693 11.276986829320265 166.98725149910513 H 0.0 **** 0.06
34740 H 108.1105746462371 10.271651814181894 168.42306299747128 H 0.0 **** 0.06
34741 C 112.65031102280881 156.53055135636853 62.72771794638987 C 0.0 **** -0.24
34742 H 112.53535400640277 157.60228340443166 62.569220456648736 H 0.0 **** 0.06
34743 H 113.68040390739253 156.24062759959384 62.51954479720996 H 0.0 **** 0.06
34744 H 111.97881874558493 155.99084923787038 62.059390219449796 H 0.0 **** 0.06
34745 H 112.40612206982689 156.28796832671313 63.761143012666025 H 0.0 **** 0.06
34746 C 38.445326189408604 121.55525305646003 109.61740234945904 C 0.0 **** -0.24
34747 H 39.0646753875738 122.17337294782547 110.26770733059439 H 0.0 **** 0.06
34748 H 38.935765114851904 121.44132712847991 108.64986073718549 H 0.0 **** 0.06
34749 H 37.474653390301256 122.03207662962092 109.4798349367953 H 0.0 **** 0.06
34750 H 38.30741135430287 120.57455665101261 110.07288149021144 H 0.0 **** 0.06
34751 C 67.62203310422971 146.28259381030074 26.082030752228576 C 0.0 **** -0.24
34752 H 67.77014749513474 147.308373872228 25.74438955435423 H 0.0 **** 0.06
34753 H 68.21389634766537 145.60808331779543 25.463830410078742 H 0.0 **** 0.06
34754 H 66.56734543433943 146.02181718304138 25.998966732169606 H 0.0 **** 0.06
34755 H 67.93730522102189 146.19384457911403 27.12221837173621 H 0.0 **** 0.06
34756 C 57.042735069170334 156.83342650636285 37.751993149303686 C 0.0 **** -0.24
34757 H 56.65814519581927 157.6968877809457 37.20918430448536 H 0.0 **** 0.06
34758 H 56.291264778763605 156.044625152189 37.758847305516824 H 0.0 **** 0.06
34759 H 57.27576461689446 157.1236380828965 38.77676955039007 H 0.0 **** 0.06
34760 H 57.94668746862246 156.471311460633 37.26242810417206 H 0.0 **** 0.06
34761 C 45.05449032741954 109.90202736481689 15.755392597190564 C 0.0 **** -0.24
34762 H 44.431442153446596 110.00505223137031 16.6446170202031 H 0.0 **** 0.06
34763 H 44.97182478303888 110.80455910028573 15.14878885953982 H 0.0 **** 0.06
34764 H 44.72030500943845 109.04197110541446 15.17589836646448 H 0.0 **** 0.06
34765 H 46.092390184869274 109.75813537893248 16.05436775613694 H 0.0 **** 0.06
34766 C 170.0318630878947 165.04094484646063 171.2032367295783 C 0.0 **** -0.24
34767 H 170.84165964004032 164.92454164532577 170.48299300482728 H 0.0 **** 0.06
34768 H 169.10812085810016 164.64734931200866 170.7772636354029 H 0.0 **** 0.06
34769 H 169.90246128265608 166.097986011193 171.4372310763448 H 0.0 **** 0.06
34770 H 170.27421030424642 164.49452382450195 172.11384259056263 H 0.0 **** 0.06
34771 C 170.94803382054153 92.52379578713987 93.62254382212438 C 0.0 **** -0.24
34772 H 169.9665737711685 92.05383634878814 93.56101758817061 H 0.0 **** 0.06
34773 H 171.3531192452262 92.38909234902411 94.62587277615268 H 0.0 **** 0.06
34774 H 170.85392731139254 93.58836847185975 93.40733192735883 H 0.0 **** 0.06
34775 H 171.61667438575853 92.06359101393124 92.89471790876661 H 0.0 **** 0.06
34776 C 131.5059154784443 148.72132063249006 33.607050756939714 C 0.0 **** -0.24
34777 H 131.85642037546685 148.23856865664203 34.51981581886528 H 0.0 **** 0.06
34778 H 132.31432073613445 149.3114450208493 33.174374948776986 H 0.0 **** 0.06
34779 H 130.66445198140875 149.3728256667505 33.84044854517158 H 0.0 **** 0.06
34780 H 131.18923856327206 147.96036589219494 32.89325959695273 H 0.0 **** 0.06
34781 C 120.68389448096156 59.594855361175746 25.718161443026048 C 0.0 **** -0.24
34782 H 121.04868841829276 60.55236760475346 25.345014152036754 H 0.0 **** 0.06
34783 H 119.8334785644816 59.27101065649134 25.116825758464074 H 0.0 **** 0.06
34784 H 120.37322001689458 59.704973126769616 26.757348939457984 H 0.0 **** 0.06
34785 H 121.47936998881599 58.85313678066436 25.653691137433384 H 0.0 **** 0.06
34786 C 54.50298334399996 143.9002019869295 139.32414985619508 C 0.0 **** -0.24
34787 H 54.80883435164864 143.83082091669968 140.36822821684058 H 0.0 **** 0.06
34788 H 54.68278532008212 142.945924170416 138.82930818850394 H 0.0 **** 0.06
34789 H 55.07958162824056 144.681141314357 138.82850142472248 H 0.0 **** 0.06
34790 H 53.441669047767405 144.14331979041955 139.2727895204592 H 0.0 **** 0.06
34791 C 63.997806764359126 135.40393312774205 163.58208466896718 C 0.0 **** -0.24
34792 H 64.70702428405554 134.66363048094607 163.21283588318545 H 0.0 **** 0.06
34793 H 64.41444881208992 135.89892126564243 164.46003704169465 H 0.0 **** 0.06
34794 H 63.06492731047763 134.90901174710072 163.8534957190571 H 0.0 **** 0.06
34795 H 63.80552663755043 136.14258756978546 162.8044214180254 H 0.0 **** 0.06
34796 C 53.67440005474546 81.0245468039762 47.61544454226046 C 0.0 **** -0.24
34797 H 53.39412350356753 82.04780392588012 47.36667942139286 H 0.0 **** 0.06
34798 H 53.573780163832026 80.39556655641547 46.73030404392048 H 0.0 **** 0.06
34799 H 53.02053876988964 80.65087314768738 48.403866144305155 H 0.0 **** 0.06
34800 H 54.70805939065173 81.00443673566497 47.960186672426914 H 0.0 **** 0.06
34801 C 124.87412992812077 105.19279097747497 170.38361018276086 C 0.0 **** -0.24
34802 H 124.60653007284657 104.15347990129743 170.19014178671813 H 0.0 **** 0.06
34803 H 125.82478042703949 105.22871568038764 170.9163232851083 H 0.0 **** 0.06
34804 H 124.09943977191253 105.66035102258513 170.99045194196282 H 0.0 **** 0.06
34805 H 124.96773131086573 105.7264214916755 169.4380979278932 H 0.0 **** 0.06
34806 C 69.88567354961727 150.95005746259682 94.87520156142105 C 0.0 **** -0.24
34807 H 70.83046125821983 151.1041747475829 94.35546394637936 H 0.0 **** 0.06
34808 H 69.47800852612924 149.97504763132017 94.60688595839511 H 0.0 **** 0.06
34809 H 69.18114047808898 151.7300106241898 94.58656961748383 H 0.0 **** 0.06
34810 H 70.05167092199736 150.99102113280085 95.95194017825375 H 0.0 **** 0.06
34811 C 18.468562385817165 150.15918363628032 165.11835508962875 C 0.0 **** -0.24
34812 H 18.826723411513143 149.6403595783288 164.22891736033992 H 0.0 **** 0.06
34813 H 17.507725434384128 149.74044512872365 165.42034622532026 H 0.0 **** 0.06
34814 H 18.34949754878471 151.22034767524804 164.8960812151834 H 0.0 **** 0.06
34815 H 19.189554655794524 150.03608350584977 165.92628991340843 H 0.0 **** 0.06
34816 C 161.7265259738522 26.53461334465382 148.00086326131503 C 0.0 **** -0.24
34817 H 160.64257242717417 26.429723320610577 148.02837576286535 H 0.0 **** 0.06
34818 H 162.03601365340884 27.294228616370702 148.71822034154198 H 0.0 **** 0.06
34819 H 162.0370825084226 26.831921022632685 146.9989341295215 H 0.0 **** 0.06
34820 H 162.19046876964077 25.581360636608565 148.25720792183637 H 0.0 **** 0.06
34821 C 99.46690125565252 108.02753509315619 23.87697885015651 C 0.0 **** -0.24
34822 H 100.39196299934429 108.11250692935494 24.446551252955693 H 0.0 **** 0.06
34823 H 98.96876264298945 108.99684670811328 23.84697693690819 H 0.0 **** 0.06
34824 H 98.8132407777666 107.29683989200811 24.351757373029045 H 0.0 **** 0.06
34825 H 99.69437279287592 107.70487934769909 22.86073470200484 H 0.0 **** 0.06
34826 C 48.79436798887147 20.600311030715886 97.25473328923539 C 0.0 **** -0.24
34827 H 49.61863953496612 20.506491734494347 96.54633185106573 H 0.0 **** 0.06
34828 H 49.19262018732661 20.793539738126242 98.25070870694316 H 0.0 **** 0.06
34829 H 48.21910644620942 19.674461710347742 97.26597529193376 H 0.0 **** 0.06
34830 H 48.149190181735065 21.425087214406233 96.95349085297448 H 0.0 **** 0.06
34831 C 31.180564226252727 112.51282231340869 37.23712393596432 C 0.0 **** -0.24
34832 H 30.903207943802613 111.50016176325997 36.94361362873599 H 0.0 **** 0.06
34833 H 30.296317499712558 113.04249159617086 37.59342914028667 H 0.0 **** 0.06
34834 H 31.59800219844496 113.03843999852441 36.379105442582215 H 0.0 **** 0.06
34835 H 31.923936690616273 112.46928397134337 38.03358862319851 H 0.0 **** 0.06
34836 C 113.35366306748747 160.5423314594937 152.94856381700362 C 0.0 **** -0.24
34837 H 112.87554245627643 159.67794901338775 152.48902511316112 H 0.0 **** 0.06
34838 H 112.594106559014 161.1781990203278 153.40403561355276 H 0.0 **** 0.06
34839 H 113.89134921384164 161.10727703588117 152.1867545867483 H 0.0 **** 0.06
34840 H 114.05358735286444 160.20760632187222 153.71414546551793 H 0.0 **** 0.06
34841 C 69.09039810509256 73.1178890650255 77.67628184699312 C 0.0 **** -0.24
34842 H 69.63687246511438 72.5604906426435 76.91615229865418 H 0.0 **** 0.06
34843 H 68.36584800280593 73.77560094127809 77.19342524828714 H 0.0 **** 0.06
34844 H 69.78946180139621 73.71584604412952 78.2610968509247 H 0.0 **** 0.06
34845 H 68.56818309634679 72.42147274198538 78.33243882415394 H 0.0 **** 0.06
34846 C 97.66479998661893 19.068464656216776 95.45015874929666 C 0.0 **** -0.24
34847 H 98.65973362717068 19.294813304826363 95.83188049333987 H 0.0 **** 0.06
34848 H 97.13292233485404 18.444757728684237 96.16982468928683 H 0.0 **** 0.06
34849 H 97.75216823622088 18.535987573477996 94.50241555302327 H 0.0 **** 0.06
34850 H 97.11433795073367 19.996117722071688 95.2970003644273 H 0.0 **** 0.06
34851 C 157.3215220259291 10.322840049342858 76.93607719373946 C 0.0 **** -0.24
34852 H 157.06428933856958 9.76884696158433 76.03358222226775 H 0.0 **** 0.06
34853 H 158.4002325713708 10.480298340698027 76.97098669489073 H 0.0 **** 0.06
34854 H 157.00837529272894 9.756049161321442 77.81204315004628 H 0.0 **** 0.06
34855 H 156.8132913482189 11.28784711891663 76.9272930517835 H 0.0 **** 0.06
34856 C 84.82094731664 29.369656528118128 7.65316845255164 C 0.0 **** -0.24
34857 H 84.82989360860091 28.356813705854165 8.054975055364274 H 0.0 **** 0.06
34858 H 85.7562608411987 29.559105980883658 7.125934427925671 H 0.0 **** 0.06
34859 H 84.71388131670108 30.08269571892481 8.470144674788969 H 0.0 **** 0.06
34860 H 83.9857231104051 29.480010694491 6.962678318621371 H 0.0 **** 0.06
34861 C 12.10752692207717 11.466987514063035 62.49678727968612 C 0.0 **** -0.24
34862 H 11.397465359922307 12.195791707079245 62.107774206234865 H 0.0 **** 0.06
34863 H 11.651683521152847 10.922559974568308 63.32491328805409 H 0.0 **** 0.06
34864 H 13.000856711190039 11.981980188886183 62.84860767124013 H 0.0 **** 0.06
34865 H 12.379182787987304 10.76695151816319 61.70669685471171 H 0.0 **** 0.06
34866 C 160.00128466983966 120.03400048331918 31.444766598635 C 0.0 **** -0.24
34867 H 160.24127900068652 120.69076642506283 30.60869877863729 H 0.0 **** 0.06
34868 H 160.87192759214483 119.93744827901727 32.093581490789234 H 0.0 **** 0.06
34869 H 159.7198015113201 119.05111537049538 31.065705526935858 H 0.0 **** 0.06
34870 H 159.17084291619622 120.45610955863447 32.01091994709486 H 0.0 **** 0.06
34871 C 22.858813148402987 111.12359300666608 113.85371470678564 C 0.0 **** -0.24
34872 H 23.87798427139944 111.05626785201616 113.47433533912346 H 0.0 **** 0.06
34873 H 22.88257147631691 111.26948290033712 114.93346183209661 H 0.0 **** 0.06
34874 H 22.323252408407484 110.20238270888217 113.62268118891967 H 0.0 **** 0.06
34875 H 22.350563514603778 111.96575267399461 113.38338651516807 H 0.0 **** 0.06
34876 C 54.81759920540527 114.23642591123084 39.00606182540338 C 0.0 **** -0.24
34877 H 54.82413799599017 113.32422080988874 38.40884553075702 H 0.0 **** 0.06
34878 H 54.61730811858496 113.98594982588313 40.04859357149465 H 0.0 **** 0.06
34879 H 54.042698666434674 114.90693914901087 38.637613357177145 H 0.0 **** 0.06
34880 H 55.78871002753564 114.72608219087485 38.9304794467252 H 0.0 **** 0.06
34881 C 49.16311915292016 111.13807777639943 24.73876093605176 C 0.0 **** -0.24
34882 H 48.9946644629112 110.75281254565897 25.743628022510592 H 0.0 **** 0.06
34883 H 49.64823359977146 112.11215459012465 24.799056134126715 H 0.0 **** 0.06
34884 H 48.207239321279076 111.23900850341937 24.22332620525782 H 0.0 **** 0.06
34885 H 49.80187966548624 110.44673043950871 24.18754582360401 H 0.0 **** 0.06
34886 C 133.45637746638033 25.234975456481266 26.892315413810003 C 0.0 **** -0.24
34887 H 134.20611177088716 24.528822509134898 26.536197936235517 H 0.0 **** 0.06
34888 H 133.60705515129058 26.199991182052088 26.406791867426143 H 0.0 **** 0.06
34889 H 133.55178309560046 25.35278541097958 27.972032406453536 H 0.0 **** 0.06
34890 H 132.4612344802684 24.85968617969752 26.65503380298928 H 0.0 **** 0.06
34891 C 161.46231609003934 144.23573363125817 156.60005567815227 C 0.0 **** -0.24
34892 H 160.61714207817647 144.86897010070382 156.8673300886109 H 0.0 **** 0.06
34893 H 161.95078540087655 143.88067044101396 157.50780623008927 H 0.0 **** 0.06
34894 H 162.17249307590214 144.80955941568766 156.00539966086922 H 0.0 **** 0.06
34895 H 161.10856635405025 143.38348724131635 156.02061510714867 H 0.0 **** 0.06
34896 C 18.706413783627795 161.58631664458414 6.173513574067442 C 0.0 **** -0.24
34897 H 18.935798016133873 161.16803023722483 5.19402007782071 H 0.0 **** 0.06
34898 H 19.093661870457822 160.9276522423745 6.951057345899926 H 0.0 **** 0.06
34899 H 17.626060393493105 161.68182531876448 6.283467374438146 H 0.0 **** 0.06
34900 H 19.168592342488495 162.56924452243334 6.266152433505567 H 0.0 **** 0.06
34901 C 28.89881863278984 58.724688559464255 99.9692449422817 C 0.0 **** -0.24
34902 H 29.14902491697299 57.66815548349415 100.06635243497624 H 0.0 **** 0.06
34903 H 29.815247693558348 59.31397363660558 99.93701048163427 H 0.0 **** 0.06
34904 H 28.296873974232412 59.0347528230557 100.82353995627551 H 0.0 **** 0.06
34905 H 28.33326727559674 58.87969489890723 99.05079686910278 H 0.0 **** 0.06
34906 C 29.469965602216234 98.53567250297698 81.24753201024367 C 0.0 **** -0.24
34907 H 28.83233696359906 98.99432488886958 82.00350747434925 H 0.0 **** 0.06
34908 H 29.125740995731974 97.52019287944904 81.05027645675395 H 0.0 **** 0.06
34909 H 30.49829252719468 98.50755992656804 81.60738697181361 H 0.0 **** 0.06
34910 H 29.421671466918724 99.12142842684369 80.3290986249716 H 0.0 **** 0.06
34911 C 110.40342936245668 123.30355462430035 34.13676245111124 C 0.0 **** -0.24
34912 H 110.84492717880963 123.93381607320663 34.909065748497824 H 0.0 **** 0.06
34913 H 110.41997250597345 123.8307371489582 33.18376295076942 H 0.0 **** 0.06
34914 H 109.3728835342248 123.06971449720527 34.40478164467507 H 0.0 **** 0.06
34915 H 110.97538502990838 122.37941888321387 34.05310222687844 H 0.0 **** 0.06
34916 C 17.353278417571516 94.0857216141111 0.5400272203369241 C 0.0 **** -0.24
34917 H 17.159026637773934 94.22818695500058 -0.5230179609723677 H 0.0 **** 0.06
34918 H 17.01455478572916 94.96328299411167 1.0917241858141438 H 0.0 **** 0.06
34919 H 18.42284430289277 93.94692471986099 0.6993301970393873 H 0.0 **** 0.06
34920 H 16.816104390280827 93.20511594938816 0.8925919929288284 H 0.0 **** 0.06
34921 C 147.01525740997192 3.480727506246467 110.16620314715664 C 0.0 **** -0.24
34922 H 147.52829184082685 3.994525910244363 109.35366327822743 H 0.0 **** 0.06
34923 H 146.91044454023282 4.156791609540441 111.01543916125996 H 0.0 **** 0.06
34924 H 147.59294461306058 2.606350007632315 110.46641087218035 H 0.0 **** 0.06
34925 H 146.02705017254556 3.1650625505510632 109.83012680793132 H 0.0 **** 0.06
34926 C 145.74312189302634 2.707196112545226 17.20004723873018 C 0.0 **** -0.24
34927 H 145.7588749745483 2.113228365707762 18.114022265392066 H 0.0 **** 0.06
34928 H 144.9322571028914 2.3608904258049606 16.557534275036346 H 0.0 **** 0.06
34929 H 146.69321854098683 2.5965631062880377 16.678492016248583 H 0.0 **** 0.06
34930 H 145.58592915862062 3.755463154719102 17.451609960088177 H 0.0 **** 0.06
34931 C 20.03310878958243 139.36330930293047 54.873597607425936 C 0.0 **** -0.24
34932 H 19.278028251112374 140.06204858300958 55.23338084248209 H 0.0 **** 0.06
34933 H 19.545886527872568 138.53441406218292 54.35951458862078 H 0.0 **** 0.06
34934 H 20.606205945068496 138.98079577755738 55.71822192601262 H 0.0 **** 0.06
34935 H 20.7028629804999 139.87727789811606 54.18316598226991 H 0.0 **** 0.06
34936 C 33.0560604198439 83.25638189195922 7.105169318082858 C 0.0 **** -0.24
34937 H 32.13915758920916 83.29010943495172 6.517282578082927 H 0.0 **** 0.06
34938 H 33.52555317761596 82.27892594524565 6.989520544565096 H 0.0 **** 0.06
34939 H 32.82034025524419 83.42502627803879 8.15640158916463 H 0.0 **** 0.06
34940 H 33.73878912184256 84.03071263919878 6.756951618195558 H 0.0 **** 0.06
34941 C 136.2231629713533 25.197466980111386 120.97936069885523 C 0.0 **** -0.24
34942 H 135.6637870658851 24.563646495722196 121.66754118267642 H 0.0 **** 0.06
34943 H 135.73866275059257 25.188054528282834 120.00238211119162 H 0.0 **** 0.06
34944 H 137.24143279342888 24.820052467068592 120.8841974322084 H 0.0 **** 0.06
34945 H 136.24766526097775 26.216177144627068 121.36349005564296 H 0.0 **** 0.06
34946 C 89.52649819983299 53.33145962348014 156.51493839003206 C 0.0 **** -0.24
34947 H 90.10188857940267 53.69319327580803 155.66313275257028 H 0.0 **** 0.06
34948 H 90.20735706951317 53.018109643428616 157.30718659055802 H 0.0 **** 0.06
34949 H 88.91332597605627 52.48574438649939 156.20648304763634 H 0.0 **** 0.06
34950 H 88.88387365325335 54.13074363222765 156.8843594991193 H 0.0 **** 0.06
34951 C 36.70907640344012 55.729009029297 80.73102264253453 C 0.0 **** -0.24
34952 H 36.14506527361209 55.32928057433986 81.57329502765003 H 0.0 **** 0.06
34953 H 36.91267808231137 54.93013734450261 80.01828386860075 H 0.0 **** 0.06
34954 H 37.651098920793416 56.14503328894142 81.08969743383085 H 0.0 **** 0.06
34955 H 36.128063594247976 56.511838482702785 80.24357280436004 H 0.0 **** 0.06
34956 C 156.23376928910352 133.12933276735316 140.8213740288677 C 0.0 **** -0.24
34957 H 155.17911445722785 133.03404609374448 141.07758056696872 H 0.0 **** 0.06
34958 H 156.36922529741435 132.92149992520424 139.7593347627585 H 0.0 **** 0.06
34959 H 156.8155927350336 132.41853496972587 141.4075780323452 H 0.0 **** 0.06
34960 H 156.57150568573275 134.14246708146894 141.03950053463063 H 0.0 **** 0.06
34961 C 154.4357009519846 63.68012320190164 100.18537381942241 C 0.0 **** -0.24
34962 H 154.2705055195035 63.22549331672246 99.20834550128188 H 0.0 **** 0.06
34963 H 154.3025855711531 64.76028133305664 100.10975669100009 H 0.0 **** 0.06
34964 H 155.44975458221123 63.460657627560806 100.52087241495883 H 0.0 **** 0.06
34965 H 153.72025265216104 63.27534759341876 100.90045744585697 H 0.0 **** 0.06
34966 C 101.88554880315687 16.10790547508043 137.25344672397225 C 0.0 **** -0.24
34967 H 100.92372405078908 16.599072924810685 137.10249343307046 H 0.0 **** 0.06
34968 H 101.93568272352931 15.711698461274324 138.26827075424336 H 0.0 **** 0.06
34969 H 102.68919090254118 16.829676351603126 137.1053913964567 H 0.0 **** 0.06
34970 H 101.99299622387039 15.292300829570024 136.53823884934388 H 0.0 **** 0.06
34971 C 12.089926033232786 96.40162896175895 129.1737243500767 C 0.0 **** -0.24
34972 H 11.55004235795667 95.78722862123556 129.8947847121512 H 0.0 **** 0.06
34973 H 11.376854170636705 96.96067014616443 128.56720256210042 H 0.0 **** 0.06
34974 H 12.690984502257692 95.76100748808534 128.5290259655791 H 0.0 **** 0.06
34975 H 12.740794850629982 97.0966508881088 129.704037921752 H 0.0 **** 0.06
34976 C 157.46771131632752 133.01090224513965 102.21898394572406 C 0.0 **** -0.24
34977 H 156.42291701689805 133.2991160560616 102.10800726038778 H 0.0 **** 0.06
34978 H 158.02770806494803 133.83704063935616 102.65776201583472 H 0.0 **** 0.06
34979 H 157.88379910174078 132.7689943301395 101.24042442687829 H 0.0 **** 0.06
34980 H 157.53712094948884 132.13830818854808 102.8685223212195 H 0.0 **** 0.06
34981 C 162.47043808383916 116.91089899505263 0.8714039856160412 C 0.0 **** -0.24
34982 H 162.6390871686619 116.34887488087239 1.789799628483138 H 0.0 **** 0.06
34983 H 161.74019025480624 117.69832747191583 1.056740637527497 H 0.0 **** 0.06
34984 H 162.0944488199207 116.2400456293428 0.09912617782504185 H 0.0 **** 0.06
34985 H 163.40890330127377 117.35543281469342 0.5405763950057008 H 0.0 **** 0.06
34986 C 165.3596187129628 170.50360237982488 139.89156651198635 C 0.0 **** -0.24
34987 H 165.75204988642923 170.77193502482993 138.91035013934288 H 0.0 **** 0.06
34988 H 165.6842736410191 169.49604062875864 140.14946892058236 H 0.0 **** 0.06
34989 H 164.27057149680147 170.5412315682106 139.86951236845988 H 0.0 **** 0.06
34990 H 165.732115394732 171.20828573648606 140.63583649428455 H 0.0 **** 0.06
34991 C 88.39920688212943 73.57448244071368 145.74286558359503 C 0.0 **** -0.24
34992 H 87.99508228174591 73.6671896032468 144.7346568340784 H 0.0 **** 0.06
34993 H 87.93840227586891 74.32288387579113 146.38844487617268 H 0.0 **** 0.06
34994 H 89.47741257612641 73.7285029560413 145.71828281642632 H 0.0 **** 0.06
34995 H 88.18345263755258 72.57756921232786 146.12925444233568 H 0.0 **** 0.06
34996 C 164.05559038919256 147.21497888988318 14.511259728251048 C 0.0 **** -0.24
34997 H 164.29242717546921 148.08043383320455 15.129866431825121 H 0.0 **** 0.06
34998 H 164.37599912420845 147.40301654002025 13.486040094512532 H 0.0 **** 0.06
34999 H 162.98087901177797 147.03674798940438 14.530504455778924 H 0.0 **** 0.06
35000 H 164.57589901360296 146.3387610956917 14.898558718756675 H 0.0 **** 0.06
35001 C 151.6746388030898 0.4022148857173704 21.267711539346124 C 0.0 **** -0.24
35002 H 152.12117268995746 -0.4767787117578166 20.805007667477923 H 0.0 **** 0.06
35003 H 151.5932185988826 1.1995207428032444 20.52903481580705 H 0.0 **** 0.06
35004 H 152.30259727517947 0.7354722208280435 22.09473446892332 H 0.0 **** 0.06
35005 H 150.68188129808357 0.1516262696789923 21.643461598855765 H 0.0 **** 0.06
35006 C 2.3961240027509234 140.82081543907086 147.2248410421359 C 0.0 **** -0.24
35007 H 2.7599341023632746 139.91424720356852 147.70757430922052 H 0.0 **** 0.06
35008 H 1.3353492405729526 140.71179794385014 146.99956283987063 H 0.0 **** 0.06
35009 H 2.9494065551319864 140.98744013945642 146.30091637244567 H 0.0 **** 0.06
35010 H 2.540368089731544 141.67031842334166 147.89315199970025 H 0.0 **** 0.06
35011 C 41.37205189770049 151.09558081253 131.14819228384954 C 0.0 **** -0.24
35012 H 41.002892288965484 151.28038359638686 132.1570249267486 H 0.0 **** 0.06
35013 H 41.26880359526422 150.03571140323209 130.91345235163982 H 0.0 **** 0.06
35014 H 42.42163932522783 151.38145475551562 131.0878145146677 H 0.0 **** 0.06
35015 H 40.79311736674339 151.6841751292503 130.4366132509667 H 0.0 **** 0.06
35016 C 76.30488348234289 160.95179826370384 163.27975511135804 C 0.0 **** -0.24
35017 H 75.38276363806438 160.7471353631222 162.73542957866843 H 0.0 **** 0.06
35018 H 77.15543307878184 160.5900416613887 162.70109134104425 H 0.0 **** 0.06
35019 H 76.27726057380346 160.4429577154355 164.24318307962122 H 0.0 **** 0.06
35020 H 76.40213856039355 162.0249680461596 163.43838109562782 H 0.0 **** 0.06
35021 C 55.59166240712334 9.9477819386384 127.65272147501804 C 0.0 **** -0.24
35022 H 54.657676915988446 10.351982089372264 127.2618474079377 H 0.0 **** 0.06
35023 H 56.417489476529454 10.257014945164364 127.0114627094643 H 0.0 **** 0.06
35024 H 55.53499389849982 8.860074347569103 127.67492565117072 H 0.0 **** 0.06
35025 H 55.754502924058215 10.323473461763676 128.66286504356748 H 0.0 **** 0.06
35026 C 129.20648629248623 1.2235128962579722 35.57418534106864 C 0.0 **** -0.24
35027 H 129.71865907597572 1.4978483721350528 34.65126589349785 H 0.0 **** 0.06
35028 H 128.1552727346466 1.0297876703606335 35.36235578814512 H 0.0 **** 0.06
35029 H 129.28875600830708 2.0408353601781073 36.29168231687515 H 0.0 **** 0.06
35030 H 129.6657169218269 0.3267173852248675 35.990626499233315 H 0.0 **** 0.06
35031 C 120.83517006649726 104.20746496723797 3.9267452178455855 C 0.0 **** -0.24
35032 H 120.29955027416429 103.68584905479173 4.719562628732163 H 0.0 **** 0.06
35033 H 121.14649322199898 105.18902419972738 4.283070251926198 H 0.0 **** 0.06
35034 H 120.1813815620651 104.32349786570961 3.0624535209074466 H 0.0 **** 0.06
35035 H 121.71529596644217 103.62835591090436 3.642039460334658 H 0.0 **** 0.06
35036 C 72.72720730411652 28.382902451008434 78.50478960388361 C 0.0 **** -0.24
35037 H 72.11807626369614 29.280890993177863 78.40174040645006 H 0.0 **** 0.06
35038 H 72.15160742671443 27.6091884331301 79.01216378970051 H 0.0 **** 0.06
35039 H 73.61982916893524 28.61421268880663 79.0865730545318 H 0.0 **** 0.06
35040 H 73.02046936624242 28.028597399379933 77.51643769999694 H 0.0 **** 0.06
35041 C 136.67210515043888 134.64571864419253 169.6223141976689 C 0.0 **** -0.24
35042 H 136.10685949602686 134.00957166451286 170.30266743422004 H 0.0 **** 0.06
35043 H 135.98210655084787 135.2144306492391 168.99883462523206 H 0.0 **** 0.06
35044 H 137.3067392271398 134.0257734694148 168.98899298661394 H 0.0 **** 0.06
35045 H 137.29302765580317 135.33223356510535 170.1983694962704 H 0.0 **** 0.06
35046 C 120.78664502275726 4.736199669959859 66.62227623577965 C 0.0 **** -0.24
35047 H 121.61634828090132 5.394591244433613 66.36324101078253 H 0.0 **** 0.06
35048 H 121.17733563981196 3.7845121200314082 66.98223988538761 H 0.0 **** 0.06
35049 H 120.16971892067897 4.566966003344895 65.73914693319638 H 0.0 **** 0.06
35050 H 120.18390812514735 5.2009153038342575 67.402556824137 H 0.0 **** 0.06
35051 C 138.69816835178787 115.80046587327683 166.81317523884303 C 0.0 **** -0.24
35052 H 137.98469045657689 115.18686964770316 166.26222045126988 H 0.0 **** 0.06
35053 H 138.89962514537515 116.71384674058842 166.2536774903648 H 0.0 **** 0.06
35054 H 139.62609478461712 115.24481486761835 166.94869528100037 H 0.0 **** 0.06
35055 H 138.281519913361 116.05529010801098 167.78750622273748 H 0.0 **** 0.06
35056 C 5.145798640159569 21.96514685910452 90.19864074244686 C 0.0 **** -0.24
35057 H 5.353506479230248 21.070873028912104 90.78572330850294 H 0.0 **** 0.06
35058 H 6.038536094869585 22.250126476755213 89.64185564717812 H 0.0 **** 0.06
35059 H 4.856340054117311 22.77814923834211 90.86439973811618 H 0.0 **** 0.06
35060 H 4.332407917313446 21.760051921584846 89.50144505282009 H 0.0 **** 0.06
35061 C 17.472989056460946 140.91560039792842 37.802930424141664 C 0.0 **** -0.24
35062 H 17.872036694501055 141.72499740010534 38.41519563790678 H 0.0 **** 0.06
35063 H 17.417158958876918 140.00370836587462 38.39719980684083 H 0.0 **** 0.06
35064 H 18.127419907644352 140.7524387288758 36.94675479309353 H 0.0 **** 0.06
35065 H 16.476212164043154 141.1827538470826 37.452589112843555 H 0.0 **** 0.06
35066 C 144.52743246262935 22.59137435054825 29.28524018102192 C 0.0 **** -0.24
35067 H 144.45891930208052 23.67608606044061 29.200118794338962 H 0.0 **** 0.06
35068 H 144.47739996253588 22.145563345538363 28.291524175779628 H 0.0 **** 0.06
35069 H 143.69924373413923 22.22238781295667 29.890397643659128 H 0.0 **** 0.06
35070 H 145.47066153762898 22.32223706405202 29.758589063220413 H 0.0 **** 0.06
35071 C 134.7632932547911 171.15385297361652 118.76192358271254 C 0.0 **** -0.24
35072 H 133.79197701369736 171.45328876925907 118.36725135047334 H 0.0 **** 0.06
35073 H 135.24721490557585 170.47633279845851 118.05838862607925 H 0.0 **** 0.06
35074 H 134.62539981717384 170.6478992274866 119.71754819258896 H 0.0 **** 0.06
35075 H 135.38584299610142 172.0367988385035 118.90395028021831 H 0.0 **** 0.06
35076 C 27.399710888233066 125.92350467924896 65.28399089301085 C 0.0 **** -0.24
35077 H 28.453334444372203 125.84253920719684 65.5514758136291 H 0.0 **** 0.06
35078 H 27.308245747412542 126.42071139015223 64.31753404346684 H 0.0 **** 0.06
35079 H 26.875850781725404 126.50389308574395 66.04325505121233 H 0.0 **** 0.06
35080 H 26.963336509951183 124.92613506964429 65.22237536792274 H 0.0 **** 0.06
35081 C 160.5500324825481 79.67151500539774 42.974340439316535 C 0.0 **** -0.24
35082 H 161.50174977293608 79.41883285798866 43.44122811584023 H 0.0 **** 0.06
35083 H 159.7634951320303 79.0399878731393 43.388098433972516 H 0.0 **** 0.06
35084 H 160.6185600850883 79.50838882721251 41.898409202698474 H 0.0 **** 0.06
35085 H 160.31592191843748 80.71798144615997 43.16933893205069 H 0.0 **** 0.06
35086 C 109.55150281507727 145.4658726825565 87.81145296382007 C 0.0 **** -0.24
35087 H 110.17519558485245 144.79109004758973 87.2240187582899 H 0.0 **** 0.06
35088 H 109.12481431313265 144.92343213541056 88.65521380902508 H 0.0 **** 0.06
35089 H 108.74861247788053 145.85490967870987 87.18540623880452 H 0.0 **** 0.06
35090 H 110.15863645748541 146.29235403554057 88.18044007870378 H 0.0 **** 0.06
35091 C 60.45608237920226 96.5602264439757 34.976674075556346 C 0.0 **** -0.24
35092 H 59.97384989977405 96.80350868894226 35.92270881665485 H 0.0 **** 0.06
35093 H 60.414943067365584 97.42509753485848 34.314525497736554 H 0.0 **** 0.06
35094 H 59.93801132706284 95.72110895563873 34.511628454424226 H 0.0 **** 0.06
35095 H 61.496679461664115 96.29010411708259 35.15751056770357 H 0.0 **** 0.06
35096 C 14.725344393267676 147.06753686159598 60.11668241880591 C 0.0 **** -0.24
35097 H 14.794795693246556 146.53598107293303 59.16672337083334 H 0.0 **** 0.06
35098 H 15.70664440310071 147.0907778871954 60.591212024047266 H 0.0 **** 0.06
35099 H 14.018552642707675 146.55369666629858 60.768405417009845 H 0.0 **** 0.06
35100 H 14.381597381940082 148.08617436472045 59.938248114193144 H 0.0 **** 0.06
35101 C 43.33159491985502 69.42007287831248 34.698510015632706 C 0.0 **** -0.24
35102 H 43.432020249982614 70.3632550180775 35.23444784405058 H 0.0 **** 0.06
35103 H 42.34111138799568 69.00249142277687 34.87961299654219 H 0.0 **** 0.06
35104 H 44.091175614455906 68.72015628121326 35.04839877377461 H 0.0 **** 0.06
35105 H 43.46332116565776 69.59450825819931 33.63038610183304 H 0.0 **** 0.06
35106 C 72.65730569160142 68.7371068029502 26.747267273107155 C 0.0 **** -0.24
35107 H 71.85715007061893 69.21998136576592 26.185614047988906 H 0.0 **** 0.06
35108 H 73.51765677089465 69.40419194166837 26.798027633235762 H 0.0 **** 0.06
35109 H 72.94450235986382 67.81174343697462 26.246879494072516 H 0.0 **** 0.06
35110 H 72.31006741220519 68.51281752148196 27.75495870942683 H 0.0 **** 0.06
35111 C 116.76055282700753 71.1488499920822 116.0901034543954 C 0.0 **** -0.24
35112 H 117.35840483491393 71.49074258881018 116.93469424368791 H 0.0 **** 0.06
35113 H 116.44711911564028 72.00659124427463 115.49545278129699 H 0.0 **** 0.06
35114 H 115.88027752545634 70.62103353149101 116.4592110369133 H 0.0 **** 0.06
35115 H 117.35484919895418 70.47575752918209 115.47327811043914 H 0.0 **** 0.06
35116 C 23.91099106795994 117.96146561511429 143.17738404055913 C 0.0 **** -0.24
35117 H 23.239184205790785 117.8968003873585 142.32167549014923 H 0.0 **** 0.06
35118 H 24.883315282952466 117.54791184308726 142.906758602656 H 0.0 **** 0.06
35119 H 23.494228929158183 117.3957728178305 144.01021243910688 H 0.0 **** 0.06
35120 H 24.027959873706344 119.00487754077554 143.4688338911354 H 0.0 **** 0.06
35121 C 71.79402890375073 21.431443578174083 41.67827247826449 C 0.0 **** -0.24
35122 H 72.61324347804316 22.08846231922149 41.385709582587936 H 0.0 **** 0.06
35123 H 70.89186982674309 22.023884666840956 41.83445113826136 H 0.0 **** 0.06
35124 H 72.05432714371847 20.915646739215873 42.60217973159669 H 0.0 **** 0.06
35125 H 71.61670689032005 20.699194450018922 40.89075594203527 H 0.0 **** 0.06
35126 C 36.46864489408162 54.96283875212828 50.163827442107134 C 0.0 **** -0.24
35127 H 36.527039872737646 53.98890140245538 49.67876226437551 H 0.0 **** 0.06
35128 H 37.46763414963539 55.28297954386096 50.45843311466663 H 0.0 **** 0.06
35129 H 35.83440365637338 54.89055098287321 51.04758969949077 H 0.0 **** 0.06
35130 H 36.04351390645894 55.68802409572521 49.470034935415484 H 0.0 **** 0.06
35131 C 143.57628302725334 105.4500492853881 43.623999902711105 C 0.0 **** -0.24
35132 H 143.13479849892303 105.0820042682708 42.69895211739157 H 0.0 **** 0.06
35133 H 143.98463477541603 106.44810431964726 43.4607141924491 H 0.0 **** 0.06
35134 H 144.37337467348974 104.77751717015593 43.939243644334425 H 0.0 **** 0.06
35135 H 142.81000966749448 105.49373678974553 44.39915974228175 H 0.0 **** 0.06
35136 C 166.46977346783575 122.55994049321856 81.23664900000713 C 0.0 **** -0.24
35137 H 166.00553027165992 122.71075444712494 82.21167495585887 H 0.0 **** 0.06
35138 H 165.9614457062337 123.17495944039251 80.49335780872198 H 0.0 **** 0.06
35139 H 166.39174944353474 121.51045256125627 80.95538493197064 H 0.0 **** 0.06
35140 H 167.5213033237461 122.84589787687611 81.28837500324418 H 0.0 **** 0.06
35141 C 27.037506645621704 39.88407968890985 149.8972659012196 C 0.0 **** -0.24
35142 H 26.47134700420284 40.784302368439285 150.13351478473757 H 0.0 **** 0.06
35143 H 26.593952860319376 39.03109736269403 150.4112312563243 H 0.0 **** 0.06
35144 H 28.070940826983986 40.00770480956962 150.22252246784151 H 0.0 **** 0.06
35145 H 27.013522608482504 39.71155133479601 148.82138816138468 H 0.0 **** 0.06
35146 C 106.53085855407937 34.40947641978266 122.00272338702285 C 0.0 **** -0.24
35147 H 106.47040533313375 33.642579898132055 121.2310477460488 H 0.0 **** 0.06
35148 H 106.4184862356085 35.39353545306119 121.54582787140643 H 0.0 **** 0.06
35149 H 107.49830394155018 34.348621169146554 122.50121335379322 H 0.0 **** 0.06
35150 H 105.7354212866245 34.25437878545125 122.73187252927875 H 0.0 **** 0.06
35151 C 151.87836464711933 123.6524626615905 163.66981031278453 C 0.0 **** -0.24
35152 H 152.21209348446726 123.1090619434095 164.5536258471981 H 0.0 **** 0.06
35153 H 152.6942672565483 124.2718042921968 163.29532653327578 H 0.0 **** 0.06
35154 H 151.03150252215784 124.28671119175073 163.93192198673077 H 0.0 **** 0.06
35155 H 151.5775307392858 122.94310025218482 162.89962002256453 H 0.0 **** 0.06
35156 C 19.84914433322789 21.36813923971468 0.09617422374910234 C 0.0 **** -0.24
35157 H 19.732434112123975 21.85750357227073 -0.8702084273645596 H 0.0 **** 0.06
35158 H 20.480826627071167 21.982570902281054 0.73864556992433 H 0.0 **** 0.06
35159 H 20.31356014601633 20.392043940897906 -0.04380471638972949 H 0.0 **** 0.06
35160 H 18.87146926257848 21.242801009391883 0.5607610828229497 H 0.0 **** 0.06
35161 C 146.49649926564217 146.008858178619 57.00562534542229 C 0.0 **** -0.24
35162 H 147.1160765000501 145.13102722553876 57.18734225758536 H 0.0 **** 0.06
35163 H 146.19532726530196 146.0304080495538 55.95745872587793 H 0.0 **** 0.06
35164 H 147.06526614141296 146.90935213483056 57.239766524473225 H 0.0 **** 0.06
35165 H 145.60932715580353 145.96464530455285 57.637933873752445 H 0.0 **** 0.06
35166 C 72.72251856975413 58.39797335055647 4.8856166040864935 C 0.0 **** -0.24
35167 H 72.68567623880082 57.81549318603419 3.9650441271051875 H 0.0 **** 0.06
35168 H 72.55473928893707 57.740229590026075 5.738270950745061 H 0.0 **** 0.06
35169 H 71.94990089154558 59.16590203734579 4.861129534141867 H 0.0 **** 0.06
35170 H 73.70054701021739 58.869753552168845 4.977687130343753 H 0.0 **** 0.06
35171 C 89.37419327860438 27.8515643738981 41.17713005500224 C 0.0 **** -0.24
35172 H 89.2863108270891 28.92893644558248 41.03744370963568 H 0.0 **** 0.06
35173 H 88.37822553009234 27.408114556224973 41.20932836221664 H 0.0 **** 0.06
35174 H 89.8922375446151 27.648023832627757 42.11330713180081 H 0.0 **** 0.06
35175 H 89.93696594266486 27.421952951284084 40.34889511525739 H 0.0 **** 0.06
35176 C 70.98276636912738 164.27294186679143 17.241570685414075 C 0.0 **** -0.24
35177 H 70.63757070752823 164.98415617572343 16.49102997869636 H 0.0 **** 0.06
35178 H 70.93639446200388 164.7336848762285 18.228919531432325 H 0.0 **** 0.06
35179 H 72.01098354275712 163.98409089126474 17.022555257573856 H 0.0 **** 0.06
35180 H 70.34607863071872 163.38798239081962 17.222527140991133 H 0.0 **** 0.06
35181 C 161.16481830870637 113.29855763106701 101.24182854800961 C 0.0 **** -0.24
35182 H 160.9099470482919 113.32082885193068 102.30166194770308 H 0.0 **** 0.06
35183 H 160.74756360287464 114.17739508360057 100.75012291340792 H 0.0 **** 0.06
35184 H 160.7523947191675 112.39741497240627 100.78846350186666 H 0.0 **** 0.06
35185 H 162.24945120747165 113.29810642882578 101.12946537373125 H 0.0 **** 0.06
35186 C 163.44612543029868 115.25668724899009 13.48147597950826 C 0.0 **** -0.24
35187 H 162.95276753900015 115.44912913121357 14.435297428720887 H 0.0 **** 0.06
35188 H 164.4021572335659 114.76417269851854 13.65951473449757 H 0.0 **** 0.06
35189 H 163.61316504457483 116.2004736199149 12.962253250979849 H 0.0 **** 0.06
35190 H 162.81300973909794 114.61338934191124 12.869957767320045 H 0.0 **** 0.06
35191 C 0.04689770256305792 19.108750492585727 57.45773886196697 C 0.0 **** -0.24
35192 H 0.15251086125203983 19.495031670256623 58.47108770294203 H 0.0 **** 0.06
35193 H 0.5384426370717392 19.784901738326283 56.75782867405313 H 0.0 **** 0.06
35194 H -1.0112588291362954 19.03163245287942 57.20726979188997 H 0.0 **** 0.06
35195 H 0.5078961410648049 18.123436108880412 57.39476927898275 H 0.0 **** 0.06
35196 C 83.46742693232963 64.25917248595272 97.77800761109401 C 0.0 **** -0.24
35197 H 83.94338585129137 63.516606726615464 97.13857243090314 H 0.0 **** 0.06
35198 H 82.77238606230293 63.76249621520884 98.45611534434605 H 0.0 **** 0.06
35199 H 82.92341596219022 64.97491720403718 97.1605371363473 H 0.0 **** 0.06
35200 H 84.228432004749 64.7832108641735 98.35564436854318 H 0.0 **** 0.06
35201 C 122.84384014825883 92.51296555342054 154.08800773235436 C 0.0 **** -0.24
35202 H 122.38940043527589 92.05277913233073 153.21095461335 H 0.0 **** 0.06
35203 H 122.76177502971606 91.83545137671479 154.93725564104057 H 0.0 **** 0.06
35204 H 122.32868665001752 93.44661881596835 154.3159719188506 H 0.0 **** 0.06
35205 H 123.89533367361636 92.71758344379191 153.88656526008305 H 0.0 **** 0.06
35206 C 151.75562604634666 156.07235985498374 91.26511686915126 C 0.0 **** -0.24
35207 H 150.8826317318804 156.43496807076042 91.80748886743788 H 0.0 **** 0.06
35208 H 152.4594290674876 156.89248170808602 91.12074007901944 H 0.0 **** 0.06
35209 H 151.4442162296471 155.68478701510065 90.2948290664447 H 0.0 **** 0.06
35210 H 152.23388779550015 155.27777098601766 91.83695721910004 H 0.0 **** 0.06
35211 C 29.058533306780134 78.56063081770043 113.40251131326721 C 0.0 **** -0.24
35212 H 28.179567444212864 78.94966309496749 112.88887420901582 H 0.0 **** 0.06
35213 H 28.96027702564021 77.48210351587664 113.5237331454089 H 0.0 **** 0.06
35214 H 29.14397171933979 79.03036092801443 114.3826445186223 H 0.0 **** 0.06
35215 H 29.949899052628552 78.78162297821655 112.81422839264366 H 0.0 **** 0.06
35216 C 27.45005978457965 10.808319705525662 159.33356052000713 C 0.0 **** -0.24
35217 H 27.715112231128387 11.667876660295548 158.71720327634483 H 0.0 **** 0.06
35218 H 26.37265261564943 10.796525183830028 159.4975021522572 H 0.0 **** 0.06
35219 H 27.96320712904958 10.877642601575985 160.29211009701584 H 0.0 **** 0.06
35220 H 27.750990047913092 9.891673636067878 158.82522679528225 H 0.0 **** 0.06
35221 C 56.45637581325337 52.57364662365535 13.960027919676463 C 0.0 **** -0.24
35222 H 56.16078511936183 52.031321260809094 13.062303848553825 H 0.0 **** 0.06
35223 H 55.60495682352246 52.64427321026989 14.63783527310369 H 0.0 **** 0.06
35224 H 56.78899458036028 53.57477006554119 13.687745410706043 H 0.0 **** 0.06
35225 H 57.27075433172976 52.04204200801051 14.452724945484988 H 0.0 **** 0.06
35226 C 114.57291972632422 122.48469431443985 125.24324938171111 C 0.0 **** -0.24
35227 H 115.17411448954743 122.93464724742793 126.03399740083586 H 0.0 **** 0.06
35228 H 115.13436306861911 121.67493390565758 124.77703414821957 H 0.0 **** 0.06
35229 H 114.33351079876454 123.23963422163499 124.49536754320235 H 0.0 **** 0.06
35230 H 113.65059577470245 122.090108141793 125.66940599901858 H 0.0 **** 0.06
35231 C 122.25761517226113 26.365906829502784 73.08481912877397 C 0.0 **** -0.24
35232 H 122.8401301354742 25.471311314721504 73.30517876627277 H 0.0 **** 0.06
35233 H 122.77316900015796 26.95766734031357 72.32773593473479 H 0.0 **** 0.06
35234 H 122.14297353870188 26.9572022043118 73.9937950833276 H 0.0 **** 0.06
35235 H 121.27472389845914 26.076625184100912 72.71276259967385 H 0.0 **** 0.06
35236 C 104.0511536568452 132.00303991437409 92.85792138351115 C 0.0 **** -0.24
35237 H 103.33874287362386 132.80881616435198 92.67607049561923 H 0.0 **** 0.06
35238 H 104.15739977359095 131.84776529129203 93.93230482702322 H 0.0 **** 0.06
35239 H 105.01703440375235 132.2691380574304 92.4313838376371 H 0.0 **** 0.06
35240 H 103.68774794545965 131.08617849554489 92.39249077994293 H 0.0 **** 0.06
35241 C 5.452770556466703 142.95946981461566 95.79237716539745 C 0.0 **** -0.24
35242 H 5.973653966023903 143.51292754879887 95.01061235781384 H 0.0 **** 0.06
35243 H 6.150227911007164 142.7201781796176 96.59506261716916 H 0.0 **** 0.06
35244 H 5.047301037511545 142.03766987178858 95.37500020650594 H 0.0 **** 0.06
35245 H 4.638648806583774 143.56882189990188 96.18671590249119 H 0.0 **** 0.06
35246 C 33.59488448566306 53.94166854073086 136.58127574820438 C 0.0 **** -0.24
35247 H 33.26918292511904 54.4811957978971 135.69207835166685 H 0.0 **** 0.06
35248 H 33.961089439397526 54.6514647136712 137.32293436655502 H 0.0 **** 0.06
35249 H 34.393225041034995 53.249890227836886 136.3137513737513 H 0.0 **** 0.06
35250 H 32.754616490280284 53.38314839685336 136.9949170874543 H 0.0 **** 0.06
35251 C 84.43063855555192 110.79846059613229 159.38769203981042 C 0.0 **** -0.24
35252 H 85.4205682195265 110.4464000214229 159.0965171549858 H 0.0 **** 0.06
35253 H 83.9932135099063 111.3709483032969 158.5698972408875 H 0.0 **** 0.06
35254 H 84.51654058980813 111.4331012442014 160.27066334193552 H 0.0 **** 0.06
35255 H 83.79301397481424 109.94371841973748 159.6157598380742 H 0.0 **** 0.06
35256 C 112.99494262263829 59.25985190793605 7.20081974491967 C 0.0 **** -0.24
35257 H 113.56786494323978 60.18079385251828 7.092985930728048 H 0.0 **** 0.06
35258 H 111.93867556902995 59.46755653726308 7.028109295630628 H 0.0 **** 0.06
35259 H 113.1276861950027 58.865126478630984 8.208616942720596 H 0.0 **** 0.06
35260 H 113.34500435349867 58.52615118865434 6.474855408306837 H 0.0 **** 0.06
35261 C 88.34002586522794 28.049724734839117 50.85631630997257 C 0.0 **** -0.24
35262 H 89.2330051378513 28.36343131273702 51.39634720598012 H 0.0 **** 0.06
35263 H 88.48301631984675 27.03774323094305 50.474728301500164 H 0.0 **** 0.06
35264 H 88.16164630035485 28.73011638717088 50.022843363591846 H 0.0 **** 0.06
35265 H 87.48244203788714 28.06732881609588 51.5291277766689 H 0.0 **** 0.06
35266 C 35.747492647420415 120.39169852186492 18.777643096387123 C 0.0 **** -0.24
35267 H 36.69639750185547 119.87627468292999 18.928497493351443 H 0.0 **** 0.06
35268 H 35.79477204827168 120.97761351322998 17.858716266873046 H 0.0 **** 0.06
35269 H 35.556559715332014 121.05460024790202 19.621745051396772 H 0.0 **** 0.06
35270 H 34.9441283695013 119.65944028728987 18.70122398053155 H 0.0 **** 0.06
35271 C 20.69160836697717 172.64633807480232 11.63531368282218 C 0.0 **** -0.24
35272 H 21.128463510525982 171.84159619973036 12.22679258233886 H 0.0 **** 0.06
35273 H 20.709286235939793 173.57196166408215 12.2113550629647 H 0.0 **** 0.06
35274 H 19.660435566592923 172.3945415960058 11.385160914805411 H 0.0 **** 0.06
35275 H 21.265911622733398 172.77729094979136 10.718680564029079 H 0.0 **** 0.06
35276 C 66.49050507394715 159.1546241885494 153.64937961083268 C 0.0 **** -0.24
35277 H 67.32772823714285 159.84873999649847 153.57501019597078 H 0.0 **** 0.06
35278 H 66.42270713965631 158.56778705099023 152.73287547942033 H 0.0 **** 0.06
35279 H 65.5655366531215 159.7144405152184 153.79248210286352 H 0.0 **** 0.06
35280 H 66.64513164697063 158.4878082376398 154.4974369708135 H 0.0 **** 0.06
35281 C 147.82643594840215 15.888451323055307 107.26692043316649 C 0.0 **** -0.24
35282 H 147.02176017562564 16.53318780858524 106.91458262880809 H 0.0 **** 0.06
35283 H 148.77423908257302 16.226650710926265 106.84656627967098 H 0.0 **** 0.06
35284 H 147.634098116577 14.863052891352567 106.95085966988 H 0.0 **** 0.06
35285 H 147.87572690596983 15.93035306737761 108.35484911703014 H 0.0 **** 0.06
35286 C 117.10010719313564 30.953517588358352 115.47816023952109 C 0.0 **** -0.24
35287 H 116.59543370003018 30.94484687456918 114.51159534533392 H 0.0 **** 0.06
35288 H 116.79714956785241 30.078863214115245 116.05430224095355 H 0.0 **** 0.06
35289 H 116.8297015233864 31.85947577169418 116.0213036374073 H 0.0 **** 0.06
35290 H 118.17949667914871 30.931085492949137 115.32437677093918 H 0.0 **** 0.06
35291 C 136.85210354472255 85.50744560782834 21.299539273435244 C 0.0 **** -0.24
35292 H 136.78212126810567 86.4636062900093 21.81813585584814 H 0.0 **** 0.06
35293 H 136.69999232125028 84.69637581135751 22.011983066596713 H 0.0 **** 0.06
35294 H 137.83754883922316 85.41249641425784 20.84453885540188 H 0.0 **** 0.06
35295 H 136.08792138712985 85.45843523867245 20.523324212617013 H 0.0 **** 0.06
35296 C 25.60788639235568 42.78468521842706 10.949575218796781 C 0.0 **** -0.24
35297 H 25.956856834845468 43.226333659805505 11.883611353947998 H 0.0 **** 0.06
35298 H 25.825221258863337 41.716127994335466 10.950050722212893 H 0.0 **** 0.06
35299 H 26.117882325723656 43.25957640832985 10.111357649084368 H 0.0 **** 0.06
35300 H 24.53273880308086 42.93774488680725 10.854888415543257 H 0.0 **** 0.06
35301 C 152.65820700054604 26.403445101651698 84.07523205864538 C 0.0 **** -0.24
35302 H 152.4503426477849 26.561071560711923 85.13381295328128 H 0.0 **** 0.06
35303 H 152.43612421822343 25.368552961958812 83.81230104145781 H 0.0 **** 0.06
35304 H 153.7096621212565 26.611183771292417 83.87738122477731 H 0.0 **** 0.06
35305 H 152.03787933200468 27.07237302522458 83.47923525963843 H 0.0 **** 0.06
35306 C 35.815380022136935 103.78015422745557 32.066441064440625 C 0.0 **** -0.24
35307 H 35.70973162309207 102.83271899559537 31.53940782154217 H 0.0 **** 0.06
35308 H 36.78951046036178 103.81806870385827 32.55557766015701 H 0.0 **** 0.06
35309 H 35.02901945249323 103.86904374301014 32.81522064545712 H 0.0 **** 0.06
35310 H 35.73418246093439 104.60266663970725 31.354778564287926 H 0.0 **** 0.06
35311 C 128.75051177846674 0.3283474797408701 131.23503140187572 C 0.0 **** -0.24
35312 H 128.57625948377037 -0.5443248372129403 130.6059985441584 H 0.0 **** 0.06
35313 H 128.24060230346228 0.1949973867558299 132.18911329767656 H 0.0 **** 0.06
35314 H 128.3647761479138 1.2172308449495972 130.7364047323901 H 0.0 **** 0.06
35315 H 129.82088728262852 0.44353274670498877 131.40721105735335 H 0.0 **** 0.06
35316 C 105.8592725858791 145.37390800015265 134.2067856039935 C 0.0 **** -0.24
35317 H 105.6558592942948 146.35756059202697 133.78397975554878 H 0.0 **** 0.06
35318 H 106.64918504268812 145.45653317579922 134.95365278751433 H 0.0 **** 0.06
35319 H 106.178486757294 144.69709908431435 133.41322701514235 H 0.0 **** 0.06
35320 H 104.95518255494409 144.98456713444077 134.6737631852565 H 0.0 **** 0.06
35321 C 58.54939707835615 152.14849690470857 120.90225166337746 C 0.0 **** -0.24
35322 H 57.943184971604154 151.25223329617458 120.77053753567142 H 0.0 **** 0.06
35323 H 58.79806156644703 152.26671424743964 121.95656319093436 H 0.0 **** 0.06
35324 H 57.98855098966884 153.0189324951523 120.56136936518263 H 0.0 **** 0.06
35325 H 59.46570901348406 152.05519382638218 120.31962472499515 H 0.0 **** 0.06
35326 C 77.35325087917859 141.29744242429476 99.99101463763549 C 0.0 **** -0.24
35327 H 77.3055973670163 140.2088919026341 99.99602117818941 H 0.0 **** 0.06
35328 H 76.65865375818805 141.68807881580136 99.2470675657274 H 0.0 **** 0.06
35329 H 78.3660605278402 141.61608034709894 99.74500515152937 H 0.0 **** 0.06
35330 H 77.08233952226355 141.67733443842835 100.97666940006408 H 0.0 **** 0.06
35331 C 2.1590545532013152 38.09874513526607 0.9979580445321332 C 0.0 **** -0.24
35332 H 1.6546317445694 38.85332060575887 0.395363120713796 H 0.0 **** 0.06
35333 H 1.4170211183538015 37.50849133481026 1.5374856837852775 H 0.0 **** 0.06
35334 H 2.8233242504458644 38.588059633684864 1.7112597440368233 H 0.0 **** 0.06
35335 H 2.742172065823979 37.444903598397474 0.34876822581293965 H 0.0 **** 0.06
35336 C 131.37354964409013 137.80377131156604 90.7872997699556 C 0.0 **** -0.24
35337 H 131.75945070274835 136.78410915861838 90.77925810680783 H 0.0 **** 0.06
35338 H 131.93867606600787 138.40103371621186 91.50320824635888 H 0.0 **** 0.06
35339 H 130.3219353220796 137.79157778542265 91.07433605661996 H 0.0 **** 0.06
35340 H 131.47314690943162 138.23740911873205 89.79206822323934 H 0.0 **** 0.06
35341 C 92.58096844250136 18.944362286051614 51.66910201795963 C 0.0 **** -0.24
35342 H 93.60458195210023 18.82267855367712 52.024039548210396 H 0.0 **** 0.06
35343 H 91.8868542588489 18.632891643944276 52.45003014504317 H 0.0 **** 0.06
35344 H 92.42878065832755 18.33158757654047 50.78092793472882 H 0.0 **** 0.06
35345 H 92.40443211102749 19.992383412828815 51.42314901494649 H 0.0 **** 0.06
35346 C 45.95908599380766 129.88629226545675 138.93592464016274 C 0.0 **** -0.24
35347 H 46.68568343908731 129.34806662586664 138.32777459210382 H 0.0 **** 0.06
35348 H 45.464455840864105 129.1887183479305 139.61245538626224 H 0.0 **** 0.06
35349 H 45.216525564362655 130.35304628167768 138.28781746123246 H 0.0 **** 0.06
35350 H 46.47031497791477 130.6546142592485 139.51591983300966 H 0.0 **** 0.06
35351 C 39.67163481805994 148.82339680340405 104.56494044215475 C 0.0 **** -0.24
35352 H 40.627752426641706 149.178404906982 104.94965144087243 H 0.0 **** 0.06
35353 H 38.93218243754717 149.62100159536905 104.6383363870452 H 0.0 **** 0.06
35354 H 39.34145462309817 147.96546727514283 105.15083220246521 H 0.0 **** 0.06
35355 H 39.786998233306434 148.52853957805308 103.52218799331214 H 0.0 **** 0.06
35356 C 35.19480680911113 18.162410316536523 5.654602701665965 C 0.0 **** -0.24
35357 H 36.11841678894467 17.763072397825283 5.234578844705084 H 0.0 **** 0.06
35358 H 35.34466843611807 18.386179960408413 6.711221293495328 H 0.0 **** 0.06
35359 H 34.39856816127059 17.425697845232435 5.5475095723933805 H 0.0 **** 0.06
35360 H 34.91978638190281 19.07501160668849 5.126102156607828 H 0.0 **** 0.06
35361 C 115.09331630973051 33.235253067410525 60.08536098871855 C 0.0 **** -0.24
35362 H 115.92384636533637 32.8271919164805 59.50975340074905 H 0.0 **** 0.06
35363 H 114.45178461691432 33.82484805425645 59.429747498098834 H 0.0 **** 0.06
35364 H 115.48035324953608 33.87068078722223 60.882403161881626 H 0.0 **** 0.06
35365 H 114.51632872415954 32.41852958236598 60.51973096328385 H 0.0 **** 0.06
35366 C 145.25218617468258 52.91252594437786 29.725334293602756 C 0.0 **** -0.24
35367 H 144.79285486363742 53.655034807644824 30.377697316411997 H 0.0 **** 0.06
35368 H 144.4730266572321 52.36075587402621 29.19824088994953 H 0.0 **** 0.06
35369 H 145.84613586196886 52.22174670361855 30.32275371066531 H 0.0 **** 0.06
35370 H 145.8948305658315 53.413471474001696 29.001881512767497 H 0.0 **** 0.06
35371 C 54.44640807138545 160.81090271460545 163.66674579518974 C 0.0 **** -0.24
35372 H 54.254572472446526 160.76346247034462 162.59476831707332 H 0.0 **** 0.06
35373 H 53.60363847183926 161.29029069875003 164.16542882685638 H 0.0 **** 0.06
35374 H 55.35227555987903 161.38890950383228 163.84834815684331 H 0.0 **** 0.06
35375 H 54.57491326905554 159.80187395641008 164.0569925530234 H 0.0 **** 0.06
35376 C 33.88831759567259 112.76837276272494 121.46014455237497 C 0.0 **** -0.24
35377 H 33.21165578091171 111.93016713819014 121.29612539561808 H 0.0 **** 0.06
35378 H 34.918639806056675 112.43597686517421 121.32793133440768 H 0.0 **** 0.06
35379 H 33.756317895187294 113.14875754968944 122.47335267256872 H 0.0 **** 0.06
35380 H 33.66720582391318 113.5600128697302 120.7439890382137 H 0.0 **** 0.06
35381 C 138.57536824354446 141.009456711106 97.51356739406498 C 0.0 **** -0.24
35382 H 138.19383622082404 141.96892593390504 97.86447955436984 H 0.0 **** 0.06
35383 H 139.35376800901554 141.17945690122383 96.76952778904621 H 0.0 **** 0.06
35384 H 137.76252497522012 140.4382230243462 97.06537650221776 H 0.0 **** 0.06
35385 H 138.98990371673068 140.45342425867148 98.35385032853961 H 0.0 **** 0.06
35386 C 126.90646722016476 7.144225144298275 105.44437280963353 C 0.0 **** -0.24
35387 H 126.91078123322666 7.061796746289417 106.53163779914263 H 0.0 **** 0.06
35388 H 126.69785255358872 8.176337762310254 105.16053890721355 H 0.0 **** 0.06
35389 H 126.13553975600237 6.492228021090227 105.03357750346191 H 0.0 **** 0.06
35390 H 127.87961401493374 6.848699818795353 105.05373582909357 H 0.0 **** 0.06
35391 C 110.36174801772654 22.97807068087232 69.05944024049472 C 0.0 **** -0.24
35392 H 110.06427001572706 22.121659037995073 69.66487903353554 H 0.0 **** 0.06
35393 H 110.1431953596994 23.898676510127274 69.6015609445751 H 0.0 **** 0.06
35394 H 109.80854886794503 22.96893042932004 68.1208805402584 H 0.0 **** 0.06
35395 H 111.43042315094027 22.922525803159402 68.85277528333637 H 0.0 **** 0.06
35396 C 20.170414282577667 104.9673714979323 41.18799963645776 C 0.0 **** -0.24
35397 H 19.464407202215057 104.26236870868647 41.62658058336508 H 0.0 **** 0.06
35398 H 20.3444834355775 105.78716093907238 41.88455715143924 H 0.0 **** 0.06
35399 H 19.760405065238274 105.36061304531165 40.25789066163014 H 0.0 **** 0.06
35400 H 21.11189709920427 104.45800971066416 40.982892700302315 H 0.0 **** 0.06
35401 C 138.66644048039007 161.5731643830033 155.81625992556408 C 0.0 **** -0.24
35402 H 138.12559704297703 162.51465019451143 155.9180492202613 H 0.0 **** 0.06
35403 H 139.58801338212913 161.61894992985373 156.39517288246265 H 0.0 **** 0.06
35404 H 138.9046958867228 161.40393777968495 154.76532702938047 H 0.0 **** 0.06
35405 H 138.04577886436215 160.75659190403496 156.184752424131 H 0.0 **** 0.06
35406 C 75.5558145860675 0.5156450849236762 105.48191158809419 C 0.0 **** -0.24
35407 H 75.51750762820133 0.5006299898680595 106.57105726436231 H 0.0 **** 0.06
35408 H 75.92215839024308 1.4853519431611062 105.14401067304689 H 0.0 **** 0.06
35409 H 74.55630704047569 0.34441330511862134 105.0801460159507 H 0.0 **** 0.06
35410 H 76.22680136737284 -0.26837324667690154 105.13175853064371 H 0.0 **** 0.06
35411 C 79.43783711432849 8.611057471979251 113.87830972516622 C 0.0 **** -0.24
35412 H 78.40040401205266 8.724411815537934 114.19030570300626 H 0.0 **** 0.06
35413 H 79.91061537150028 9.591870747996893 113.82708255319358 H 0.0 **** 0.06
35414 H 79.47267134770004 8.139589861111318 112.89592534709345 H 0.0 **** 0.06
35415 H 79.96809536179813 7.988738150239698 114.59911069297357 H 0.0 **** 0.06
35416 C 23.862043635027135 143.45779100386426 50.83252721505684 C 0.0 **** -0.24
35417 H 23.947978569319503 143.90409991280222 51.82277248953446 H 0.0 **** 0.06
35418 H 24.250120705134066 144.15173973074744 50.08589103865182 H 0.0 **** 0.06
35419 H 22.815101748519822 143.24348083569902 50.619898433684725 H 0.0 **** 0.06
35420 H 24.435847523868375 142.53132752221921 50.800143357979735 H 0.0 **** 0.06
35421 C 31.779997781128515 107.8964023411909 50.225476553364786 C 0.0 **** -0.24
35422 H 32.14452578385672 108.49255634869053 49.388790276568045 H 0.0 **** 0.06
35423 H 30.709230434995717 108.0599881937406 50.34856657791282 H 0.0 **** 0.06
35424 H 32.30034655767942 108.19216666503985 51.13627773474232 H 0.0 **** 0.06
35425 H 31.965717291669023 106.84033725789999 50.02698469476108 H 0.0 **** 0.06
35426 C 45.68621427679153 162.89150662262756 171.84827771641457 C 0.0 **** -0.24
35427 H 45.292615528344385 161.89207677808207 172.0351659529663 H 0.0 **** 0.06
35428 H 46.213119432821784 162.90113513328322 170.89342460130177 H 0.0 **** 0.06
35429 H 46.37483703791693 163.16501808731866 172.64760327698193 H 0.0 **** 0.06
35430 H 44.86351315428533 163.60626707532603 171.81717209576956 H 0.0 **** 0.06
35431 C 131.0247288718145 91.09043087681476 16.95200116096362 C 0.0 **** -0.24
35432 H 131.51810901706722 91.9147066762728 16.43867419398964 H 0.0 **** 0.06
35433 H 130.3658675509082 91.4859030126363 17.725122585910867 H 0.0 **** 0.06
35434 H 131.77562982169553 90.44543880762072 17.40886459002411 H 0.0 **** 0.06
35435 H 130.43835912265436 90.51391977660582 16.235472937058262 H 0.0 **** 0.06
35436 C 5.236381663132448 82.47169073008646 56.9970533108541 C 0.0 **** -0.24
35437 H 4.942639187629197 81.60581198891249 56.40487976406365 H 0.0 **** 0.06
35438 H 6.16127791683374 82.25010308617374 57.5309943783525 H 0.0 **** 0.06
35439 H 4.44974664404856 82.70507009608755 57.71425174240174 H 0.0 **** 0.06
35440 H 5.392419931305767 83.32663929688908 56.33906076087722 H 0.0 **** 0.06
35441 C 6.931557691954595 167.28557621431986 72.79205135836636 C 0.0 **** -0.24
35442 H 6.722970060882574 167.50923981293852 73.83784864051958 H 0.0 **** 0.06
35443 H 7.927418691768082 166.85015404909046 72.70566495077321 H 0.0 **** 0.06
35444 H 6.885138155999755 168.2048225325314 72.20848079060232 H 0.0 **** 0.06
35445 H 6.1916741458816205 166.57911696247288 72.41623911957532 H 0.0 **** 0.06
35446 C 108.53106680976978 2.9437270463589016 1.9071544498918342 C 0.0 **** -0.24
35447 H 107.7120374611705 2.363192479752371 1.4817925492077393 H 0.0 **** 0.06
35448 H 108.16214242793117 3.9206130794648857 2.217148997093517 H 0.0 **** 0.06
35449 H 109.31311093362953 3.0711901784543727 1.158754611012597 H 0.0 **** 0.06
35450 H 108.93844407513504 2.417114512042474 2.7707881780243895 H 0.0 **** 0.06
35451 C 59.30728439240255 91.42642280365283 107.65823765006078 C 0.0 **** -0.24
35452 H 58.568501451356326 91.26632703992894 106.87288658181203 H 0.0 **** 0.06
35453 H 58.957714303864975 90.9668983547526 108.58358097095811 H 0.0 **** 0.06
35454 H 59.44642662401361 92.49621566175853 107.8134177371858 H 0.0 **** 0.06
35455 H 60.25427300957057 90.97546143974131 107.36372863773383 H 0.0 **** 0.06
35456 C 28.681008886177324 37.03046462415233 166.50253681359334 C 0.0 **** -0.24
35457 H 28.502745545808523 35.96916644305074 166.67534750276673 H 0.0 **** 0.06
35458 H 29.683942048309177 37.29048757024805 166.84188521855378 H 0.0 **** 0.06
35459 H 27.946992194800686 37.61723563782135 167.0562854067712 H 0.0 **** 0.06
35460 H 28.588680295344375 37.24524409013941 165.43808419065618 H 0.0 **** 0.06
35461 C 120.47103378350579 50.459183440677805 5.282186283583485 C 0.0 **** -0.24
35462 H 121.51948327169373 50.75650238453969 5.306317276960044 H 0.0 **** 0.06
35463 H 119.84501423900642 51.34525774715948 5.181906625258819 H 0.0 **** 0.06
35464 H 120.22033078093071 49.938670731633465 6.207290467532204 H 0.0 **** 0.06
35465 H 120.3017137305383 49.79504962728981 4.434854488033011 H 0.0 **** 0.06
35466 C 42.88167548661774 134.75157250374798 73.87473017956745 C 0.0 **** -0.24
35467 H 42.97617733990515 133.78146571892793 73.3875265349655 H 0.0 **** 0.06
35468 H 43.39787720097354 134.72802285579348 74.83394045958119 H 0.0 **** 0.06
35469 H 41.82644213772859 134.97526770285154 74.03393521929422 H 0.0 **** 0.06
35470 H 43.32445400171095 135.5200632177413 73.24185391372984 H 0.0 **** 0.06
35471 C 78.50677232682708 28.383559432562294 108.26983119674071 C 0.0 **** -0.24
35472 H 77.81729192369792 27.57406106848606 108.02870181828041 H 0.0 **** 0.06
35473 H 78.70254230689429 28.972405009968043 107.3733786311443 H 0.0 **** 0.06
35474 H 79.4422463948022 27.96516655134411 108.64221791858336 H 0.0 **** 0.06
35475 H 78.06459039422371 29.021273105218995 109.03480085305745 H 0.0 **** 0.06
35476 C 126.2933867895905 121.70981801692935 37.16868804273386 C 0.0 **** -0.24
35477 H 126.33725765183365 122.76723036219835 36.90719870553821 H 0.0 **** 0.06
35478 H 126.82462469277061 121.12734101436604 36.41554659928374 H 0.0 **** 0.06
35479 H 125.2529263248349 121.38929751345668 37.20918224523123 H 0.0 **** 0.06
35480 H 126.75931215997369 121.55736770299691 38.141923687184615 H 0.0 **** 0.06
35481 C 109.03159881868152 125.97043974489279 26.27559541757867 C 0.0 **** -0.24
35482 H 109.93995583614054 125.7627874524554 26.841806738146573 H 0.0 **** 0.06
35483 H 109.29703598360487 126.35904425754978 25.292455128831023 H 0.0 **** 0.06
35484 H 108.4321090127732 126.70799647669969 26.808846966791066 H 0.0 **** 0.06
35485 H 108.45794061979092 125.05040055377452 26.161073111648278 H 0.0 **** 0.06
35486 C 143.5603172105874 84.72273099209428 168.133625709379 C 0.0 **** -0.24
35487 H 143.2607526633784 85.34911680800381 167.29338522196292 H 0.0 **** 0.06
35488 H 144.601454370046 84.92573167170842 168.38456459737785 H 0.0 **** 0.06
35489 H 143.44871704317305 83.67275592207338 167.8623510314755 H 0.0 **** 0.06
35490 H 142.92947350945394 84.94546479306783 168.99500141363154 H 0.0 **** 0.06
35491 C 156.61462444627847 127.73588394411814 105.5136172851486 C 0.0 **** -0.24
35492 H 156.5787983985657 127.52703804245209 106.5836762179276 H 0.0 **** 0.06
35493 H 156.35666557739756 126.83429959231344 104.95882269415651 H 0.0 **** 0.06
35494 H 157.62099370746054 128.0557573446112 105.24006079390387 H 0.0 **** 0.06
35495 H 155.90416372568188 128.52763183201202 105.27416153678482 H 0.0 **** 0.06
35496 C 100.44776637218172 110.49973866589005 109.09862426316457 C 0.0 **** -0.24
35497 H 99.49849782046033 109.96416089946104 109.1071598202339 H 0.0 **** 0.06
35498 H 100.43681573704603 111.24672035539612 108.30390376621293 H 0.0 **** 0.06
35499 H 101.26137700583763 109.79523390056357 108.92427411609208 H 0.0 **** 0.06
35500 H 100.59467960809167 110.99421515045003 110.05903756118354 H 0.0 **** 0.06
35501 C 11.446226444210367 129.18596877972203 42.9067028072467 C 0.0 **** -0.24
35502 H 12.215552569462119 129.56903283531238 42.2365525135381 H 0.0 **** 0.06
35503 H 10.710940337776009 128.62353196904053 42.3306035257291 H 0.0 **** 0.06
35504 H 10.954488056039168 130.0194498002752 43.40780750394099 H 0.0 **** 0.06
35505 H 11.903545757952202 128.53335076093146 43.649940947911844 H 0.0 **** 0.06
35506 C 1.1030408846890793 144.30106776670044 21.13695295626038 C 0.0 **** -0.24
35507 H 0.1540977697194137 144.03678379292188 20.670595664998977 H 0.0 **** 0.06
35508 H 0.9382812967802465 144.53387880019466 22.189048241891783 H 0.0 **** 0.06
35509 H 1.5243899428607506 145.17232770121086 20.63422408501532 H 0.0 **** 0.06
35510 H 1.7944758450226175 143.4632687773523 21.053492174761033 H 0.0 **** 0.06
35511 C 18.97416107126213 73.06536109457423 55.611424447272185 C 0.0 **** -0.24
35512 H 17.92045823595427 73.32939977112545 55.52047884788789 H 0.0 **** 0.06
35513 H 19.471083878618572 73.77809707961765 56.26975136471094 H 0.0 **** 0.06
35514 H 19.441176796888385 73.09273872773728 54.62703379515614 H 0.0 **** 0.06
35515 H 19.06257391853805 72.06212107894702 56.02784948702973 H 0.0 **** 0.06
35516 C 139.4222031014842 168.58710970910755 29.695060445562717 C 0.0 **** -0.24
35517 H 138.85265659023094 168.47460412796386 28.77255491740371 H 0.0 **** 0.06
35518 H 139.3730063040291 169.6242758260908 30.028467612862386 H 0.0 **** 0.06
35519 H 140.46224525089767 168.31180465033785 29.515846386807652 H 0.0 **** 0.06
35520 H 139.0009042607792 167.9377542320377 30.463372865177007 H 0.0 **** 0.06
35521 C 89.13416240115048 90.14953293865658 6.12357494506432 C 0.0 **** -0.24
35522 H 89.41710097374377 90.45643481393257 5.116412990603067 H 0.0 **** 0.06
35523 H 89.67227250301735 90.75589910031026 6.851803457355459 H 0.0 **** 0.06
35524 H 89.38651810046454 89.09826098879502 6.267126717897668 H 0.0 **** 0.06
35525 H 88.06122909828535 90.28694682378021 6.256851834354848 H 0.0 **** 0.06
35526 C 132.00223839204267 143.6773616936606 159.53454285574554 C 0.0 **** -0.24
35527 H 131.36116097188926 143.70151646999466 158.65326680580168 H 0.0 **** 0.06
35528 H 131.63090894719863 144.3875266552217 160.27408283758447 H 0.0 **** 0.06
35529 H 133.01961545141768 143.94631639641068 159.25048217313406 H 0.0 **** 0.06
35530 H 131.99608962111 142.6733602203821 159.96005248851094 H 0.0 **** 0.06
35531 C 47.92496395295923 13.408507320621815 150.63049184732324 C 0.0 **** -0.24
35532 H 48.40550380960167 14.386205533346498 150.6503616994636 H 0.0 **** 0.06
35533 H 46.897033455552915 13.502324658909032 150.9821044348377 H 0.0 **** 0.06
35534 H 48.47033132489848 12.722629101178192 151.27896674300115 H 0.0 **** 0.06
35535 H 47.9266874033396 13.024164332547898 149.61101911459366 H 0.0 **** 0.06
35536 C 85.76792545403835 7.835546467580599 93.65610954274376 C 0.0 **** -0.24
35537 H 84.9364503621425 8.421151699933318 94.04953792942422 H 0.0 **** 0.06
35538 H 85.56782121754276 6.774174145868898 93.8077977592651 H 0.0 **** 0.06
35539 H 86.68428857028394 8.111300934203427 94.17802361597862 H 0.0 **** 0.06
35540 H 85.88074490169153 8.036718398288002 92.59078526728965 H 0.0 **** 0.06
35541 C 28.22381343806994 169.92111945121786 35.651074190456455 C 0.0 **** -0.24
35542 H 28.865456783762966 170.7740851363731 35.42885457643244 H 0.0 **** 0.06
35543 H 28.578427026527507 169.04707398820705 35.103731564979384 H 0.0 **** 0.06
35544 H 27.201494860335245 170.14769581385377 35.35088921399311 H 0.0 **** 0.06
35545 H 28.25117203851501 169.7153268098382 36.72130131188601 H 0.0 **** 0.06
35546 C 38.785250093892216 26.208717504515583 93.8978792372223 C 0.0 **** -0.24
35547 H 37.83805339700791 26.746553509631454 93.84382306765741 H 0.0 **** 0.06
35548 H 38.95712282787224 25.88021760027641 94.92373196027467 H 0.0 **** 0.06
35549 H 39.594611479945 26.867234683385192 93.58571997899134 H 0.0 **** 0.06
35550 H 38.74751326297178 25.34012045630986 93.24042407883616 H 0.0 **** 0.06
35551 C 100.01729774316806 134.3281071024631 50.008188999682545 C 0.0 **** -0.24
35552 H 100.57510174222139 134.97384878816575 50.6853799035307 H 0.0 **** 0.06
35553 H 98.96600104808465 134.61830071546774 50.01137466392291 H 0.0 **** 0.06
35554 H 100.10947495434365 133.29251766864053 50.33589630473615 H 0.0 **** 0.06
35555 H 100.41856575972355 134.4267802781397 48.99908752091744 H 0.0 **** 0.06
35556 C 109.11553797024987 23.152540186870453 111.99375701836621 C 0.0 **** -0.24
35557 H 108.69309332006861 23.57542674028514 111.08326999783009 H 0.0 **** 0.06
35558 H 108.35618519527736 23.143720119709883 112.77674092677208 H 0.0 **** 0.06
35559 H 109.96323118418019 23.757396872413977 112.31525784500403 H 0.0 **** 0.06
35560 H 109.44868275056166 22.132606261472176 111.79951862700307 H 0.0 **** 0.06
35561 C 31.52382964962041 132.18618959424808 148.48390864860363 C 0.0 **** -0.24
35562 H 32.50095426244519 131.73687488374193 148.6631681983128 H 0.0 **** 0.06
35563 H 30.994819233243902 131.61314103621643 147.72120387854463 H 0.0 **** 0.06
35564 H 31.654136934910866 133.2127160391864 148.14155554173396 H 0.0 **** 0.06
35565 H 30.94659188189695 132.18169649367698 149.4075879810706 H 0.0 **** 0.06
35566 C 142.75786332682696 56.70979115003793 165.9731779504305 C 0.0 **** -0.24
35567 H 142.58605491177067 56.3217614431003 164.96874526263863 H 0.0 **** 0.06
35568 H 141.8834816041915 56.511355407499835 166.5927278150243 H 0.0 **** 0.06
35569 H 142.93258169503693 57.78459685142303 165.9223705982073 H 0.0 **** 0.06
35570 H 143.6293819288896 56.21985441265437 166.40596134961538 H 0.0 **** 0.06
35571 C 29.956800212075947 153.4539400808174 156.39209334568247 C 0.0 **** -0.24
35572 H 29.00789332813953 152.92375981038086 156.46594969171375 H 0.0 **** 0.06
35573 H 30.352435350477208 153.35061373505056 155.38150010420725 H 0.0 **** 0.06
35574 H 30.66492703867442 153.03221928371954 157.1047784983952 H 0.0 **** 0.06
35575 H 29.800539396983183 154.51003170418954 156.6143347789419 H 0.0 **** 0.06
35576 C 27.13360401586575 113.32154692259962 43.720932084347 C 0.0 **** -0.24
35577 H 28.16416538480202 113.50929557452059 44.0250881979984 H 0.0 **** 0.06
35578 H 26.46894494984449 113.48189481449378 44.56962051648145 H 0.0 **** 0.06
35579 H 27.040318358834135 112.29229217515524 43.37445461552625 H 0.0 **** 0.06
35580 H 26.864162807758476 114.00288455178693 42.91362441785935 H 0.0 **** 0.06
35581 C 125.66136311892345 35.63884499637372 145.93005731813375 C 0.0 **** -0.24
35582 H 124.92810723190786 36.056747754835484 145.24012378540272 H 0.0 **** 0.06
35583 H 126.6581991419431 35.72313349225834 145.49477851346776 H 0.0 **** 0.06
35584 H 125.43251766730808 34.58926845570089 146.11294802534513 H 0.0 **** 0.06
35585 H 125.62830327801731 36.18829950689194 146.87099566890456 H 0.0 **** 0.06
35586 C 57.76909804874305 43.77104525373329 98.63646607482548 C 0.0 **** -0.24
35587 H 58.44656818481752 44.136860833300844 97.86538803699625 H 0.0 **** 0.06
35588 H 57.561189439581426 42.71480898074253 98.46638926256986 H 0.0 **** 0.06
35589 H 56.83776667563012 44.33577453900958 98.59950825352416 H 0.0 **** 0.06
35590 H 58.23226092262456 43.897902770225016 99.61588251185998 H 0.0 **** 0.06
35591 C 112.24898174403569 160.58976343555292 14.551850225340047 C 0.0 **** -0.24
35592 H 112.5715096091966 159.69353378725071 14.02168102111844 H 0.0 **** 0.06
35593 H 112.87287882224757 161.43294439079176 14.254225433824956 H 0.0 **** 0.06
35594 H 112.3430442668633 160.42818745081655 15.625388584900094 H 0.0 **** 0.06
35595 H 111.20808498821006 160.80220783823825 14.305824752839328 H 0.0 **** 0.06
35596 C 109.99089721773117 113.49592276864885 72.46199337917939 C 0.0 **** -0.24
35597 H 110.12724177086335 114.50489971631796 72.074161151027 H 0.0 **** 0.06
35598 H 110.9267259646976 112.94418884457033 72.37515785718783 H 0.0 **** 0.06
35599 H 109.21408241664363 112.98782613264737 71.89001105700541 H 0.0 **** 0.06
35600 H 109.69581807021291 113.54767970896253 73.5104058570044 H 0.0 **** 0.06
35601 C 23.591340300376203 94.30485610145837 91.76886261617767 C 0.0 **** -0.24
35602 H 24.567325983306915 93.83034535071255 91.8677042153212 H 0.0 **** 0.06
35603 H 23.21193390677169 94.56456900281563 92.75706713856613 H 0.0 **** 0.06
35604 H 22.900368029517495 93.61615207361166 91.28343471399012 H 0.0 **** 0.06
35605 H 23.68703057030612 95.20884854399964 91.16696791110493 H 0.0 **** 0.06
35606 C 13.889041610032187 162.40781331545597 69.06921546813402 C 0.0 **** -0.24
35607 H 13.462046305770187 161.6928102637377 69.77239739968736 H 0.0 **** 0.06
35608 H 13.141443152840857 163.15965972866417 68.81545235834689 H 0.0 **** 0.06
35609 H 14.201214901406722 161.88596274531486 68.164928463246 H 0.0 **** 0.06
35610 H 14.752572200020502 162.89337623324255 69.52476105586713 H 0.0 **** 0.06
35611 C 50.0832730090989 9.076604280903126 76.90025431087649 C 0.0 **** -0.24
35612 H 49.035860098459025 9.19643553009962 76.62408979446845 H 0.0 **** 0.06
35613 H 50.65701239115167 8.772618773347205 76.02513483412903 H 0.0 **** 0.06
35614 H 50.169506164285295 8.31461568155595 77.67557581367406 H 0.0 **** 0.06
35615 H 50.469798229254565 10.023637841817191 77.27830709067028 H 0.0 **** 0.06
35616 C 19.7739676247719 13.463136013488679 70.76263905780868 C 0.0 **** -0.24
35617 H 20.820190734946152 13.755806081257788 70.85259252659934 H 0.0 **** 0.06
35618 H 19.191304510880798 13.957549094767046 71.53985947909689 H 0.0 **** 0.06
35619 H 19.688737378050234 12.382370936960172 70.87514610586507 H 0.0 **** 0.06
35620 H 19.398484738990135 13.7572791030276 69.78213171325852 H 0.0 **** 0.06
35621 C 12.038957850188893 59.24004864286748 26.332270490643005 C 0.0 **** -0.24
35622 H 12.299478971392148 59.20740077752049 27.390167483159324 H 0.0 **** 0.06
35623 H 11.23574494617867 58.530270604838364 26.133294702054528 H 0.0 **** 0.06
35624 H 12.912286669273385 58.978709057878774 25.734982812581265 H 0.0 **** 0.06
35625 H 11.708259352794926 60.24624240909654 26.070952965943313 H 0.0 **** 0.06
35626 C 115.19640044060395 53.17625424385295 112.27607755383536 C 0.0 **** -0.24
35627 H 114.31732958351893 53.30712834892883 111.64504222853967 H 0.0 **** 0.06
35628 H 115.92083874882329 53.9603210258167 112.05686398053288 H 0.0 **** 0.06
35629 H 115.64228501510689 52.201696425244876 112.07924471219056 H 0.0 **** 0.06
35630 H 114.90188440227834 53.235365397316 113.32420368139262 H 0.0 **** 0.06
35631 C 67.36677689195042 50.95912048793069 136.4091549646619 C 0.0 **** -0.24
35632 H 68.05301327546746 50.2982139366853 135.87990234656715 H 0.0 **** 0.06
35633 H 66.7427508772075 50.37093217930854 137.08242552492482 H 0.0 **** 0.06
35634 H 66.73498460986895 51.479876715272425 135.68996539683332 H 0.0 **** 0.06
35635 H 67.93723057810823 51.68861640244603 136.98602977855404 H 0.0 **** 0.06
35636 C 163.12015999530564 116.5906608929626 146.4615234357512 C 0.0 **** -0.24
35637 H 162.6376435174949 116.38787021158078 147.41775613728387 H 0.0 **** 0.06
35638 H 164.1893423168653 116.73701668338086 146.61807489111033 H 0.0 **** 0.06
35639 H 162.6906530854272 117.4901345810618 146.02161656569118 H 0.0 **** 0.06
35640 H 162.96295995729602 115.74653673687416 145.7895518874339 H 0.0 **** 0.06
35641 C 109.25577541404164 167.78807927996263 118.65732462852 C 0.0 **** -0.24
35642 H 110.12168241214965 168.2755891369899 118.21066887394312 H 0.0 **** 0.06
35643 H 108.35623861421698 168.35783621386116 118.4214225208764 H 0.0 **** 0.06
35644 H 109.3832802730052 167.7400243505935 119.73874842060803 H 0.0 **** 0.06
35645 H 109.16198604030126 166.77834441988648 118.2576106663314 H 0.0 **** 0.06
35646 C 133.07232777000172 133.45227457908464 65.4819983749771 C 0.0 **** -0.24
35647 H 132.4072751655739 133.51008673899662 64.61996357848162 H 0.0 **** 0.06
35648 H 132.58062396151487 133.89439933780946 66.34893566665562 H 0.0 **** 0.06
35649 H 133.9917507025206 133.9959382782943 65.26816339812245 H 0.0 **** 0.06
35650 H 133.30634379832932 132.4080877162993 65.68964586958141 H 0.0 **** 0.06
35651 C 58.62465744010264 98.24561856732879 147.1438696693082 C 0.0 **** -0.24
35652 H 58.18109662161791 97.53067432393587 146.4499908980051 H 0.0 **** 0.06
35653 H 58.99118894303412 97.71732348267952 148.02400837737045 H 0.0 **** 0.06
35654 H 57.872506289221036 98.97494297629447 147.44304806294178 H 0.0 **** 0.06
35655 H 59.454417774910354 98.7570451502605 146.65588726756908 H 0.0 **** 0.06
35656 C 10.754654623185644 69.08780180324408 8.885147418919928 C 0.0 **** -0.24
35657 H 11.82608808694033 68.97568056051892 9.050578187727751 H 0.0 **** 0.06
35658 H 10.345553510951362 69.7884678200391 9.613730719992418 H 0.0 **** 0.06
35659 H 10.266598026023189 68.11968389994229 8.997644834104051 H 0.0 **** 0.06
35660 H 10.581373877236985 69.46747418154132 7.878624279642281 H 0.0 **** 0.06
35661 C 1.9322029230843967 66.44578038151464 16.17111563961111 C 0.0 **** -0.24
35662 H 2.685069535949964 67.20446183084199 15.956040019516685 H 0.0 **** 0.06
35663 H 2.247752904836041 65.85467618617261 17.031144847785065 H 0.0 **** 0.06
35664 H 1.816579161831001 65.79449557921514 15.305401826399816 H 0.0 **** 0.06
35665 H 0.9816373357535966 66.9295412027201 16.39206737653567 H 0.0 **** 0.06
35666 C 33.61303221019442 149.55650763851546 47.26060516276556 C 0.0 **** -0.24
35667 H 32.788319012622466 149.0713395547577 46.738716044422176 H 0.0 **** 0.06
35668 H 33.97501247352626 148.9016124487394 48.05335087966793 H 0.0 **** 0.06
35669 H 33.26702160259417 150.49553266787052 47.6935622763159 H 0.0 **** 0.06
35670 H 34.42087553780007 149.75711251462144 46.55674862102933 H 0.0 **** 0.06
35671 C 4.853875471765818 56.479579718602594 142.34862880595307 C 0.0 **** -0.24
35672 H 5.239947813093998 57.48930463684704 142.20457688294334 H 0.0 **** 0.06
35673 H 4.063563059063732 56.49694390334531 143.1002490615594 H 0.0 **** 0.06
35674 H 5.658990132810047 55.82672595340921 142.6835071213016 H 0.0 **** 0.06
35675 H 4.45028324796521 56.10708489055784 141.40694727093984 H 0.0 **** 0.06
35676 C 65.51443758019713 53.04095147045106 17.314328573748213 C 0.0 **** -0.24
35677 H 64.52033079995977 53.03514087800002 17.76000233125844 H 0.0 **** 0.06
35678 H 65.51484238539541 53.68673128811113 16.43558203482508 H 0.0 **** 0.06
35679 H 65.78731424237671 52.02721807665745 17.02063634351812 H 0.0 **** 0.06
35680 H 66.23573217122936 53.41590084182262 18.039920914872475 H 0.0 **** 0.06
35681 C 14.038519356795604 162.13035857946022 58.40348962734778 C 0.0 **** -0.24
35682 H 13.968868166725358 162.86491945108196 57.60069186618817 H 0.0 **** 0.06
35683 H 13.37304448802628 162.41858222076735 59.217593756560944 H 0.0 **** 0.06
35684 H 15.064556832228412 162.0893725156809 58.769449234096996 H 0.0 **** 0.06
35685 H 13.747803276057418 161.15068617151326 58.02411603680778 H 0.0 **** 0.06
35686 C 161.43218449994285 68.94498669349974 147.6269438116371 C 0.0 **** -0.24
35687 H 161.85839105849547 68.61749634798264 148.57499455757699 H 0.0 **** 0.06
35688 H 161.64605163162608 70.00376005331805 147.47957347039164 H 0.0 **** 0.06
35689 H 160.3526994290197 68.7908499430946 147.6422101705598 H 0.0 **** 0.06
35690 H 161.8696691605938 68.36755260155815 146.81327852918443 H 0.0 **** 0.06
35691 C 0.23377193364157733 41.45093027183458 126.53763903199138 C 0.0 **** -0.24
35692 H 0.6728482359954455 42.442901896317096 126.43542133304572 H 0.0 **** 0.06
35693 H -0.645156204437427 41.374851378189646 125.89815526282757 H 0.0 **** 0.06
35694 H -0.05566712013987285 41.287164909976866 127.57610528116018 H 0.0 **** 0.06
35695 H 0.965108460138822 40.69856025702131 126.24219964140019 H 0.0 **** 0.06
35696 C 31.39358444789164 101.7515065016674 65.16037246821416 C 0.0 **** -0.24
35697 H 32.01558949798115 101.51150434190674 66.02347090007322 H 0.0 **** 0.06
35698 H 30.531905636554313 102.33636046337125 65.48512885060588 H 0.0 **** 0.06
35699 H 31.051823347715413 100.82929070855141 64.69170784016951 H 0.0 **** 0.06
35700 H 31.975595747561897 102.32994144010297 64.44305869629282 H 0.0 **** 0.06
35701 C 138.5976285119697 11.22445067376924 116.24953639016422 C 0.0 **** -0.24
35702 H 137.76081887510705 11.675508013772912 115.71657852806135 H 0.0 **** 0.06
35703 H 138.28848474035308 10.972753493416462 117.2637754295024 H 0.0 **** 0.06
35704 H 139.42761202170576 11.931130148367856 116.2872951404764 H 0.0 **** 0.06
35705 H 138.9141991926953 10.320712643500656 115.72991178517069 H 0.0 **** 0.06
35706 C 41.76894214866067 14.908218357370643 12.803586576744124 C 0.0 **** -0.24
35707 H 40.949838518183256 14.758457056174109 12.099876413962818 H 0.0 **** 0.06
35708 H 42.609379936316984 15.372424696873189 12.288207137944994 H 0.0 **** 0.06
35709 H 42.07837245562489 13.945057922408104 13.210253598084421 H 0.0 **** 0.06
35710 H 41.4368733246764 15.555247038558257 13.61533552801302 H 0.0 **** 0.06
35711 C 95.0067519839034 93.3391788030375 156.0589868640214 C 0.0 **** -0.24
35712 H 95.21632222600192 92.57201719903725 155.3136771515234 H 0.0 **** 0.06
35713 H 93.94727347452147 93.59745921365544 156.02543444438075 H 0.0 **** 0.06
35714 H 95.60344204831713 94.22597920285074 155.84475285678042 H 0.0 **** 0.06
35715 H 95.25782011239448 92.96239988301278 157.0498297314844 H 0.0 **** 0.06
35716 C 139.78962534190163 82.22954925219311 61.285231700546774 C 0.0 **** -0.24
35717 H 139.75762476614926 81.26692910963568 60.7753654475149 H 0.0 **** 0.06
35718 H 140.39628753620525 82.92640501956664 60.707586320857686 H 0.0 **** 0.06
35719 H 140.2259998960439 82.10175541122798 62.2763538902651 H 0.0 **** 0.06
35720 H 138.7773393793079 82.62275316815061 61.38218020744891 H 0.0 **** 0.06
35721 C 48.10603865494012 146.29750791431093 168.57421868113298 C 0.0 **** -0.24
35722 H 48.75953707112191 145.9252296433608 167.78514587130854 H 0.0 **** 0.06
35723 H 48.167194522767815 147.38509398144822 168.6135466888601 H 0.0 **** 0.06
35724 H 48.41896564810767 145.88000988313684 169.5307029976048 H 0.0 **** 0.06
35725 H 47.0795574387532 145.9985544008157 168.36561318904722 H 0.0 **** 0.06
35726 C 67.05226449958822 37.42040684291834 160.23330845570598 C 0.0 **** -0.24
35727 H 67.19635346306286 38.3753796622953 160.73919429788054 H 0.0 **** 0.06
35728 H 67.08904111739065 37.572871550547575 159.15382421399823 H 0.0 **** 0.06
35729 H 66.08314015291147 37.005856822158506 160.50921865889416 H 0.0 **** 0.06
35730 H 67.84090754956429 36.72985251541479 160.5303573008875 H 0.0 **** 0.06
35731 C 125.5759495810382 162.54925645713294 142.89824823580676 C 0.0 **** -0.24
35732 H 124.72627360827136 161.8809146943373 142.76371134089106 H 0.0 **** 0.06
35733 H 125.35123438484487 163.26942278572972 143.68442614182166 H 0.0 **** 0.06
35734 H 125.77264525661496 163.07818871796422 141.9656708067085 H 0.0 **** 0.06
35735 H 126.4547631661375 161.96723226491633 143.17772048337505 H 0.0 **** 0.06
35736 C 135.5327065693158 90.46631335101631 160.59146913337037 C 0.0 **** -0.24
35737 H 135.18689671603937 90.35609315439308 159.56407377835058 H 0.0 **** 0.06
35738 H 135.86794179556392 89.49936109920338 160.96723885569227 H 0.0 **** 0.06
35739 H 134.71578806357013 90.83474605614646 161.21228447883738 H 0.0 **** 0.06
35740 H 136.36093656488043 91.17570104075486 160.6220864786918 H 0.0 **** 0.06
35741 C 63.25616473676688 129.31650193556192 56.52675231091587 C 0.0 **** -0.24
35742 H 62.32350887023006 128.88370802047285 56.16458432108291 H 0.0 **** 0.06
35743 H 63.04689198586141 130.2600258753362 57.031714390111105 H 0.0 **** 0.06
35744 H 63.92438538168277 129.49573197390762 55.68463062140485 H 0.0 **** 0.06
35745 H 63.729769960675995 128.62747198884006 57.225727272007504 H 0.0 **** 0.06
35746 C 38.77565468213028 22.898565175592267 14.97308895537904 C 0.0 **** -0.24
35747 H 37.79962156943367 22.453119822751546 14.781641900753016 H 0.0 **** 0.06
35748 H 38.70323633294224 23.58074251848916 15.820994540398004 H 0.0 **** 0.06
35749 H 39.102577302507 23.449208746352724 14.090767326622256 H 0.0 **** 0.06
35750 H 39.49604316260432 22.112831427247983 15.19888770899911 H 0.0 **** 0.06
35751 C 110.0795521658689 147.75585088301298 22.858640862853434 C 0.0 **** -0.24
35752 H 110.94109326585539 147.3209358651194 23.36542982196925 H 0.0 **** 0.06
35753 H 109.69247795690646 147.0458596580825 22.12697821231947 H 0.0 **** 0.06
35754 H 110.38102818343111 148.6730078926732 22.35219992068359 H 0.0 **** 0.06
35755 H 109.30452925727144 147.9827284201042 23.591136102122057 H 0.0 **** 0.06
35756 C 141.8447858496683 85.69706410792497 45.114764892474824 C 0.0 **** -0.24
35757 H 141.49750383010257 84.665892572487 45.045269090650024 H 0.0 **** 0.06
35758 H 142.35991790903958 85.8441000517941 46.06370986462623 H 0.0 **** 0.06
35759 H 140.99034100047723 86.37204414219673 45.05600124158633 H 0.0 **** 0.06
35760 H 142.52943085383157 85.90565128584677 44.29211076237543 H 0.0 **** 0.06
35761 C 6.146222973294186 172.44096587563013 25.920896219731077 C 0.0 **** -0.24
35762 H 5.945246428680946 171.6831702325469 26.67706837637425 H 0.0 **** 0.06
35763 H 5.841053979740138 172.06807278451504 24.942521624256557 H 0.0 **** 0.06
35764 H 7.211715933678988 172.66812459781443 25.907826336489393 H 0.0 **** 0.06
35765 H 5.583753729942032 173.34574286464056 26.155332111079133 H 0.0 **** 0.06
35766 C 133.77202768807342 135.37937580098287 15.82313991905243 C 0.0 **** -0.24
35767 H 134.53804994304352 135.69671842391293 16.529803003649718 H 0.0 **** 0.06
35768 H 132.88096295322106 135.9957793125304 15.95281878654837 H 0.0 **** 0.06
35769 H 133.5209328574104 134.33493145159238 16.004320861702062 H 0.0 **** 0.06
35770 H 134.14719164915084 135.49291093320002 14.805548159154036 H 0.0 **** 0.06
35771 C 12.909740847782984 70.28890569767469 108.55508390069463 C 0.0 **** -0.24
35772 H 12.56663562489382 70.94991856541822 109.35126854809641 H 0.0 **** 0.06
35773 H 12.125835158396455 70.18554357620258 107.80528105508608 H 0.0 **** 0.06
35774 H 13.145533443020412 69.31017147000375 108.97252292554151 H 0.0 **** 0.06
35775 H 13.802797311650863 70.71076691244775 108.09268311441434 H 0.0 **** 0.06
35776 C 152.75052635991838 66.34519857261645 57.23190642765431 C 0.0 **** -0.24
35777 H 152.38946071010815 66.79902981295635 58.155507544071256 H 0.0 **** 0.06
35778 H 152.09912320992353 65.51581437905884 56.95590101373496 H 0.0 **** 0.06
35779 H 153.76555936132712 65.97656835936431 57.38183631959461 H 0.0 **** 0.06
35780 H 152.74753163508075 67.08932146308882 56.43572659412122 H 0.0 **** 0.06
35781 C 92.73106880297229 89.39949251268673 122.29952118809837 C 0.0 **** -0.24
35782 H 92.86432772622581 89.75308081543497 123.3216838671733 H 0.0 **** 0.06
35783 H 92.64094446525576 90.25538097581322 121.62884779993436 H 0.0 **** 0.06
35784 H 91.82695112369339 88.79353523987858 122.23895555793956 H 0.0 **** 0.06
35785 H 93.5919559060647 88.79761591697927 122.0080573812005 H 0.0 **** 0.06
35786 C 126.01610773269022 161.17494287746504 106.76457216588997 C 0.0 **** -0.24
35787 H 126.48527993530348 160.20564962961956 106.9319824915668 H 0.0 **** 0.06
35788 H 125.68833463907032 161.5890486303292 107.71826415976972 H 0.0 **** 0.06
35789 H 125.1550564444644 161.05287920639825 106.10624825711281 H 0.0 **** 0.06
35790 H 126.73377561521517 161.8511831829474 106.30159159885199 H 0.0 **** 0.06
35791 C 154.05533959802256 9.44200598899377 150.07456682271112 C 0.0 **** -0.24
35792 H 153.7306440889618 8.447930409400925 149.76884517662006 H 0.0 **** 0.06
35793 H 154.3227433241591 9.428350362843872 151.13128625708163 H 0.0 **** 0.06
35794 H 153.24540726372712 10.154098223660583 149.91346910768783 H 0.0 **** 0.06
35795 H 154.92197388646963 9.73827854462803 149.48260499964334 H 0.0 **** 0.06
35796 C 158.14473704021214 27.02178144882305 146.61296841052376 C 0.0 **** -0.24
35797 H 158.50453790580377 27.938320396811662 146.14701794397678 H 0.0 **** 0.06
35798 H 157.0545681050648 27.027199491967053 146.63144929914694 H 0.0 **** 0.06
35799 H 158.52518361313284 26.95869129402385 147.63292980624354 H 0.0 **** 0.06
35800 H 158.49453579789923 26.16196518005637 146.040765627565 H 0.0 **** 0.06
35801 C 159.987509548087 83.27945361910946 147.22872689724832 C 0.0 **** -0.24
35802 H 160.46303777246493 84.1598497168275 146.7976192826661 H 0.0 **** 0.06
35803 H 160.7038002882531 82.75147581980245 147.85840475956041 H 0.0 **** 0.06
35804 H 159.65103921643293 82.62062581943947 146.42822715939508 H 0.0 **** 0.06
35805 H 159.13186840492048 83.5875123432577 147.83021526902516 H 0.0 **** 0.06
35806 C 65.40929777489748 104.18585557373646 159.6837637425523 C 0.0 **** -0.24
35807 H 66.18355526433629 104.0532552215671 160.43992886496966 H 0.0 **** 0.06
35808 H 64.45507155275689 103.83163041359003 160.0752303062657 H 0.0 **** 0.06
35809 H 65.67054634407754 103.61511059208439 158.79331975093606 H 0.0 **** 0.06
35810 H 65.32854566107449 105.24278349803615 159.42888012716213 H 0.0 **** 0.06
35811 C 93.68800210748685 137.13366663804277 43.10120803477267 C 0.0 **** -0.24
35812 H 93.15369701491466 138.04429103454063 43.375892434270696 H 0.0 **** 0.06
35813 H 94.09776445341362 137.24311752954267 42.09692245904671 H 0.0 **** 0.06
35814 H 92.99987436938392 136.28855901380408 43.12382458436798 H 0.0 **** 0.06
35815 H 94.49863180008145 136.96131343923904 43.808199563125186 H 0.0 **** 0.06
35816 C 18.677430946316292 70.18177865704644 172.1566923121249 C 0.0 **** -0.24
35817 H 18.941911262283725 69.40881002218669 172.87849411740416 H 0.0 **** 0.06
35818 H 19.47825198781007 70.28118459340214 171.4234151978181 H 0.0 **** 0.06
35819 H 18.540534965672293 71.13059184750591 172.67549690569024 H 0.0 **** 0.06
35820 H 17.752572563967703 69.90601020814142 171.65140043419373 H 0.0 **** 0.06
35821 C 120.7994930129149 72.28457673749885 77.60837193045177 C 0.0 **** -0.24
35822 H 121.66855889966473 72.93954288838289 77.67065364217869 H 0.0 **** 0.06
35823 H 120.79269320733786 71.78000500696243 76.64131124720448 H 0.0 **** 0.06
35824 H 119.890530521736 72.87649141636655 77.71542045080213 H 0.0 **** 0.06
35825 H 120.84606737299521 71.54252233310906 78.40514307859716 H 0.0 **** 0.06
35826 C 123.61534078387899 166.66998262579153 122.12593849997887 C 0.0 **** -0.24
35827 H 124.15207180329293 167.41706065293897 122.71119180976933 H 0.0 **** 0.06
35828 H 124.01444238864246 165.6799736758064 122.34822973438747 H 0.0 **** 0.06
35829 H 123.73852251088124 166.8823869235046 121.06482172509033 H 0.0 **** 0.06
35830 H 122.55659834928673 166.70113155838573 122.38243289530641 H 0.0 **** 0.06
35831 C 93.18940785560906 159.1372553183333 2.3129370037235617 C 0.0 **** -0.24
35832 H 92.48016026247475 159.08309040771806 3.1375084907087967 H 0.0 **** 0.06
35833 H 94.13395117288158 159.54829144881055 2.672456779973004 H 0.0 **** 0.06
35834 H 92.78761787340852 159.77946707409924 1.5296886172349673 H 0.0 **** 0.06
35835 H 93.3578060645111 158.13710500259447 1.9116084357717682 H 0.0 **** 0.06
35836 C 144.0074954348962 118.4584762424002 98.29847919920144 C 0.0 **** -0.24
35837 H 144.43733907357245 119.15219552839389 97.57537809598958 H 0.0 **** 0.06
35838 H 143.19737185702286 118.95080332800777 98.83665205278834 H 0.0 **** 0.06
35839 H 144.77735002727056 118.14642880063715 99.00338589751402 H 0.0 **** 0.06
35840 H 143.6185271839819 117.58476900821464 97.77557714976678 H 0.0 **** 0.06
35841 C 143.06468984016806 121.28113627731193 137.46193405965664 C 0.0 **** -0.24
35842 H 143.58718692451814 120.32555632985196 137.42332146325776 H 0.0 **** 0.06
35843 H 142.12341615520037 121.15961952477068 137.99870937192387 H 0.0 **** 0.06
35844 H 142.86332364272377 121.62630322648118 136.44771040417925 H 0.0 **** 0.06
35845 H 143.68559213975107 122.01367758630232 137.9769706897804 H 0.0 **** 0.06
35846 C 94.21641261750273 92.505549991431 96.138496183798 C 0.0 **** -0.24
35847 H 93.31368882836239 92.230114540324 96.68458800999119 H 0.0 **** 0.06
35848 H 94.14031432658967 92.15331979157784 95.11025248961502 H 0.0 **** 0.06
35849 H 95.08361753994095 92.04942546820064 96.61657069901051 H 0.0 **** 0.06
35850 H 94.32687386919989 93.58988871769344 96.14466234956933 H 0.0 **** 0.06
35851 C 72.7608622131751 46.88221438921437 92.75734949453289 C 0.0 **** -0.24
35852 H 72.89323382455764 45.85229278287548 92.42674639239962 H 0.0 **** 0.06
35853 H 72.89548678038089 46.93673253262307 93.83825014694432 H 0.0 **** 0.06
35854 H 71.75800800589887 47.22180676969461 92.49718290077311 H 0.0 **** 0.06
35855 H 73.49915143128194 47.51822723964423 92.2674393892807 H 0.0 **** 0.06
35856 C 56.68584402306226 35.95444066422806 166.26900199940795 C 0.0 **** -0.24
35857 H 57.378701364196786 36.737427431865854 166.57786543705407 H 0.0 **** 0.06
35858 H 56.58388880265039 35.96721740810767 165.18317046810859 H 0.0 **** 0.06
35859 H 55.712659421526666 36.12834682152288 166.7270484357799 H 0.0 **** 0.06
35860 H 57.06951622339125 34.98442700715225 166.586205957239 H 0.0 **** 0.06
35861 C 2.347649683877023 168.72474076648945 20.80377737089387 C 0.0 **** -0.24
35862 H 2.183693529975187 168.96461941612063 19.753123382415367 H 0.0 **** 0.06
35863 H 1.540958731592525 169.1474024428028 21.40289422624744 H 0.0 **** 0.06
35864 H 3.299832859469575 169.1452120325526 21.128238950927027 H 0.0 **** 0.06
35865 H 2.366783471494273 167.64236735760412 20.93047339559112 H 0.0 **** 0.06
35866 C 143.68467960349147 36.36274221842288 112.03778667238527 C 0.0 **** -0.24
35867 H 142.98766215784923 35.705027865095815 112.55807478811641 H 0.0 **** 0.06
35868 H 144.58628079912182 35.806450209447135 111.78165064293921 H 0.0 **** 0.06
35869 H 143.94498709264082 37.19984994211255 112.68636117430361 H 0.0 **** 0.06
35870 H 143.21798997099015 36.73940555957549 111.12765058524036 H 0.0 **** 0.06
35871 C 116.23762319535516 45.816130153704535 34.92305292620523 C 0.0 **** -0.24
35872 H 116.0459867646166 44.75564384432903 35.08844176502407 H 0.0 **** 0.06
35873 H 115.85843044577646 46.390076301263576 35.76988049146064 H 0.0 **** 0.06
35874 H 115.73399827911473 46.13843545846596 34.01068432170712 H 0.0 **** 0.06
35875 H 117.30985698219936 45.98053884442119 34.82300476123095 H 0.0 **** 0.06
35876 C 21.76150672117052 72.15222430387858 16.57130377480047 C 0.0 **** -0.24
35877 H 22.48374872343078 71.34627087699927 16.700515782605464 H 0.0 **** 0.06
35878 H 21.30428567693204 72.38804920314496 17.532693259786157 H 0.0 **** 0.06
35879 H 20.990460864392986 71.83904196244849 15.868290789842206 H 0.0 **** 0.06
35880 H 22.269977637541643 73.03559539271403 16.183598909794455 H 0.0 **** 0.06
35881 C 43.93156142405991 8.110568227521867 82.39033736230827 C 0.0 **** -0.24
35882 H 43.32944291258826 9.0089664031199 82.52274648580574 H 0.0 **** 0.06
35883 H 43.97636123253761 7.856528534014274 81.3310262595053 H 0.0 **** 0.06
35884 H 43.48049323700519 7.2860673461098315 82.94305247021792 H 0.0 **** 0.06
35885 H 44.93881931017046 8.290403881032773 82.76372968164195 H 0.0 **** 0.06
35886 C 133.64406444356442 127.49190098042908 23.876630570434266 C 0.0 **** -0.24
35887 H 133.04453077486656 126.79808005981647 24.466215258679114 H 0.0 **** 0.06
35888 H 133.2431958135986 128.50023819485514 23.984332077827524 H 0.0 **** 0.06
35889 H 133.61216723814292 127.19760155164582 22.826815993822635 H 0.0 **** 0.06
35890 H 134.6747260830218 127.47121272476102 24.22885028634245 H 0.0 **** 0.06
35891 C 84.29294431226185 116.4467081382412 152.32816062828573 C 0.0 **** -0.24
35892 H 84.55810586779538 117.0291481799544 153.2098647170146 H 0.0 **** 0.06
35893 H 83.94468368238013 117.1163378826864 151.54186633240303 H 0.0 **** 0.06
35894 H 83.50032088845406 115.74285146247371 152.58288613851326 H 0.0 **** 0.06
35895 H 85.16727052024379 115.89871905059707 151.97804092720833 H 0.0 **** 0.06
35896 C 5.7615307132653015 163.4330922161044 142.0575437711081 C 0.0 **** -0.24
35897 H 5.528838134454531 164.16704028523714 141.2851412738861 H 0.0 **** 0.06
35898 H 6.780383270502 163.59142607833934 142.41272833265845 H 0.0 **** 0.06
35899 H 5.671907496119388 162.42863255473839 141.64349345867925 H 0.0 **** 0.06
35900 H 5.065379717443761 163.54817614035542 142.88817525287442 H 0.0 **** 0.06
35901 C 14.199420439285888 115.52205580957002 81.31837694018955 C 0.0 **** -0.24
35902 H 14.985796144093456 116.08163367648504 81.82474443690461 H 0.0 **** 0.06
35903 H 14.029857831942877 115.94821537975002 80.32958994247174 H 0.0 **** 0.06
35904 H 13.280409334549688 115.57804243676404 81.90209543525516 H 0.0 **** 0.06
35905 H 14.504475536305108 114.4801244888921 81.21796920049626 H 0.0 **** 0.06
35906 C 47.48536222379293 169.633087286511 45.98882006308946 C 0.0 **** -0.24
35907 H 47.78431536460448 168.91601607851857 45.224165832936336 H 0.0 **** 0.06
35908 H 46.61012802556546 170.185892789298 45.64619871971209 H 0.0 **** 0.06
35909 H 48.30388456304256 170.32865958732273 46.175342322174146 H 0.0 **** 0.06
35910 H 47.242707516566526 169.10255115715265 46.90908810530513 H 0.0 **** 0.06
35911 C 81.9268559808407 164.11788850698466 68.54538211268721 C 0.0 **** -0.24
35912 H 82.19499898669939 163.07592101559135 68.36756959524428 H 0.0 **** 0.06
35913 H 81.06994959179657 164.38289981793787 67.92696914514295 H 0.0 **** 0.06
35914 H 82.77177963234439 164.75827232253056 68.29097536374047 H 0.0 **** 0.06
35915 H 81.6731125141022 164.25245083581348 69.59635946175905 H 0.0 **** 0.06
35916 C 17.276649360306692 123.40411675873645 10.938806716986946 C 0.0 **** -0.24
35917 H 16.247465165785997 123.72845106811829 11.08704060847608 H 0.0 **** 0.06
35918 H 17.517646407807092 123.4331467101292 9.876005757139922 H 0.0 **** 0.06
35919 H 17.39426863381209 122.38670018639164 11.311042386760398 H 0.0 **** 0.06
35920 H 17.949090465511773 124.0684974696901 11.482314251847491 H 0.0 **** 0.06
35921 C 15.189416874797331 152.64724393302734 162.93154890841984 C 0.0 **** -0.24
35922 H 14.112324568575872 152.7536639685392 163.06088230359856 H 0.0 **** 0.06
35923 H 15.66791085877179 153.6185982553897 163.05384958025218 H 0.0 **** 0.06
35924 H 15.398472709011344 152.26180408001414 161.93311313584908 H 0.0 **** 0.06
35925 H 15.578451614993924 151.95364381774397 163.67657845087976 H 0.0 **** 0.06
35926 C 50.566300169856504 142.176351471368 128.50730104592213 C 0.0 **** -0.24
35927 H 50.393949911408924 142.43136834863526 129.55237804443863 H 0.0 **** 0.06
35928 H 50.88246231494301 143.0672684957824 127.96372072205821 H 0.0 **** 0.06
35929 H 49.64421259009646 141.79211124307392 128.07033291496356 H 0.0 **** 0.06
35930 H 51.34347343262306 141.41596607674754 128.44250206225962 H 0.0 **** 0.06
35931 C 78.63219910616105 104.86867596500576 73.29834184237997 C 0.0 **** -0.24
35932 H 79.15640849162631 105.0271938225753 72.35592007190053 H 0.0 **** 0.06
35933 H 79.31607267063865 104.43274513063068 74.02631122913895 H 0.0 **** 0.06
35934 H 77.79251697774994 104.19155145575675 73.13705468104561 H 0.0 **** 0.06
35935 H 78.26106637709528 105.82276487898167 73.6729256557604 H 0.0 **** 0.06
35936 C 161.69752086692995 40.18832630495639 128.74294456423004 C 0.0 **** -0.24
35937 H 160.6606859969076 40.522414230788456 128.78371098108175 H 0.0 **** 0.06
35938 H 162.16585622566512 40.33688808900834 129.7157223199371 H 0.0 **** 0.06
35939 H 162.23425845164556 40.763213169281855 127.98856002598296 H 0.0 **** 0.06
35940 H 161.72749972982214 39.130028627217555 128.4826706835398 H 0.0 **** 0.06
35941 C 105.72990175235705 98.60589902433395 17.540445944710825 C 0.0 **** -0.24
35942 H 106.65662844498135 98.88842029711009 18.03784165750389 H 0.0 **** 0.06
35943 H 105.8979164491738 97.71130159044785 16.940535378877996 H 0.0 **** 0.06
35944 H 105.40153168306529 99.42014967518787 16.89478725071976 H 0.0 **** 0.06
35945 H 104.96371628327782 98.40290955445391 18.2891683949112 H 0.0 **** 0.06
35946 C 117.71866084939705 128.74984572312343 90.36545297535739 C 0.0 **** -0.24
35947 H 116.80820032592678 129.28752030723143 90.100572125943 H 0.0 **** 0.06
35948 H 118.13916366126008 129.17656593043245 91.2760337976934 H 0.0 **** 0.06
35949 H 118.4407586995645 128.8395255811203 89.55392207550761 H 0.0 **** 0.06
35950 H 117.48407898871437 127.69917177956683 90.53006993216417 H 0.0 **** 0.06
35951 C 151.48565146382086 49.247657109384946 64.12228441977533 C 0.0 **** -0.24
35952 H 151.7060588476547 48.61256366557602 63.26449710512287 H 0.0 **** 0.06
35953 H 151.64918932010087 48.68436742937044 65.04218677939821 H 0.0 **** 0.06
35954 H 150.44676100542443 49.573907888536795 64.07563440182196 H 0.0 **** 0.06
35955 H 152.14169840236693 50.11778533490333 64.10848370713234 H 0.0 **** 0.06
35956 C 136.12958899249594 0.301151210021942 4.847535618119778 C 0.0 **** -0.24
35957 H 136.04697093975147 -0.6756809800331496 4.372333261533818 H 0.0 **** 0.06
35958 H 135.6830696674486 0.26040367575396317 5.8416555050921986 H 0.0 **** 0.06
35959 H 135.60672353632475 1.0443755378840365 4.2447350481198 H 0.0 **** 0.06
35960 H 137.18056167575617 0.5764684674771843 4.9315355714660924 H 0.0 **** 0.06
35961 C 25.530294040847664 143.11284964141697 116.89032663652725 C 0.0 **** -0.24
35962 H 25.893403622139076 142.14558705135923 116.54246357627068 H 0.0 **** 0.06
35963 H 24.81993361130821 142.96247895660284 117.70364755682698 H 0.0 **** 0.06
35964 H 25.03980516737763 143.63287014949125 116.06887824722912 H 0.0 **** 0.06
35965 H 26.370653039616336 143.70861454103843 117.24824723460952 H 0.0 **** 0.06
35966 C 127.6225021059584 143.01829035674947 104.2974320912466 C 0.0 **** -0.24
35967 H 127.2340444649148 143.2628430945413 103.30846200922281 H 0.0 **** 0.06
35968 H 127.66171701885423 141.93514236448434 104.41308157471894 H 0.0 **** 0.06
35969 H 126.96884121319152 143.442290962613 105.05879801516136 H 0.0 **** 0.06
35970 H 128.62525165235627 143.43188107381945 104.4063919934672 H 0.0 **** 0.06
35971 C 119.55369865633412 29.26817268442707 162.56793163124385 C 0.0 **** -0.24
35972 H 120.60419728336092 29.343773144394248 162.2879398855152 H 0.0 **** 0.06
35973 H 119.4204977170522 29.637773249337158 163.58475320948628 H 0.0 **** 0.06
35974 H 119.23737571390973 28.226365490106303 162.51528418555407 H 0.0 **** 0.06
35975 H 118.95215855008178 29.864717420951408 161.88245438964944 H 0.0 **** 0.06
35976 C 30.294761017406017 63.60506047543652 65.94503568890369 C 0.0 **** -0.24
35977 H 29.78663895768662 63.44580292977574 66.89576602557533 H 0.0 **** 0.06
35978 H 30.42618404421745 64.67448599775898 65.7772761803088 H 0.0 **** 0.06
35979 H 29.696324835671362 63.181062376842874 65.1379124216185 H 0.0 **** 0.06
35980 H 31.269846822183183 63.11791658882805 65.96896700832443 H 0.0 **** 0.06
35981 C 167.56271258522085 87.11984512444897 57.221180099333594 C 0.0 **** -0.24
35982 H 167.69628614120484 86.0437068366442 57.117100140395166 H 0.0 **** 0.06
35983 H 168.45427528560805 87.55470635824317 57.67370176966807 H 0.0 **** 0.06
35984 H 166.6991878156078 87.31877003427715 57.8555025912965 H 0.0 **** 0.06
35985 H 167.4011010984628 87.56219726863154 56.238415895974526 H 0.0 **** 0.06
35986 C 42.043350481575885 54.14972463896433 96.53654994837478 C 0.0 **** -0.24
35987 H 41.36055930114688 53.83000413543793 97.32259647248313 H 0.0 **** 0.06
35988 H 42.22984195539574 53.31758526469379 95.8570617583591 H 0.0 **** 0.06
35989 H 42.984059415444236 54.47359687514789 96.98131915666536 H 0.0 **** 0.06
35990 H 41.59871553298656 54.97719220891251 95.98392678598248 H 0.0 **** 0.06
35991 C 87.76252405675638 161.6931074612949 33.676321037419086 C 0.0 **** -0.24
35992 H 88.7349830325656 162.07832393555884 33.3727853059751 H 0.0 **** 0.06
35993 H 87.35753982057315 161.06280664257133 32.884599601745435 H 0.0 **** 0.06
35994 H 87.08320053356545 162.52498824071012 33.861429371764075 H 0.0 **** 0.06
35995 H 87.87406293354468 161.10534835331228 34.58787603598199 H 0.0 **** 0.06
35996 C 1.490511322881929 139.90154017902938 130.86302714389072 C 0.0 **** -0.24
35997 H 1.8225471554663955 140.3829387173829 129.94311962597757 H 0.0 **** 0.06
35998 H 0.6407856007803616 139.25304826068137 130.64695390057875 H 0.0 **** 0.06
35999 H 1.1942457835152709 140.66261966691565 131.58395702306657 H 0.0 **** 0.06
36000 H 2.306185087699248 139.3080467688303 131.27566870612083 H 0.0 **** 0.06
36001 C 93.55721322369993 107.68168489737985 57.95409822019923 C 0.0 **** -0.24
36002 H 93.09051090249778 106.72814943425556 58.20546510005154 H 0.0 **** 0.06
36003 H 92.83041182059767 108.48464598924485 58.07593574660383 H 0.0 **** 0.06
36004 H 93.90145026181563 107.65550239829912 56.92111106077853 H 0.0 **** 0.06
36005 H 94.40557798052399 107.85466650613492 58.61631705832794 H 0.0 **** 0.06
36006 C 15.504516737179046 22.36718795909816 122.28007081745272 C 0.0 **** -0.24
36007 H 16.288702246224943 22.24786276864836 121.5329103576594 H 0.0 **** 0.06
36008 H 15.604338006580605 23.341355115593437 122.75854468803817 H 0.0 **** 0.06
36009 H 15.596951546858634 21.582215884954067 123.03130304583584 H 0.0 **** 0.06
36010 H 14.529847976529027 22.296184707478176 121.79828195971507 H 0.0 **** 0.06
36011 C 126.66346999467348 99.266752639674 60.34588296893064 C 0.0 **** -0.24
36012 H 126.34748029830001 100.2390781365931 60.725504965799445 H 0.0 **** 0.06
36013 H 127.66927173805445 99.34804052533241 59.93483638691701 H 0.0 **** 0.06
36014 H 125.9761386911515 98.94109828041564 59.56595023766437 H 0.0 **** 0.06
36015 H 126.66113415676381 98.54145368810345 61.15986771977711 H 0.0 **** 0.06
36016 C 133.5823764217321 73.62733278637614 132.70408913448912 C 0.0 **** -0.24
36017 H 133.08549907338178 73.08816339966887 131.89809196727035 H 0.0 **** 0.06
36018 H 134.08347952842118 72.91557850709987 133.36077302388543 H 0.0 **** 0.06
36019 H 132.84315719521464 74.19004358383961 133.2741195515452 H 0.0 **** 0.06
36020 H 134.3170062713071 74.31361793031243 132.28298241706491 H 0.0 **** 0.06
36021 C 95.11843521397526 28.024693273996604 80.49811137542017 C 0.0 **** -0.24
36022 H 95.70301595641257 27.53017789456493 79.72279398209263 H 0.0 **** 0.06
36023 H 94.48971389630182 28.792260533235435 80.0460060634364 H 0.0 **** 0.06
36024 H 95.79105156072578 28.484255946157532 81.22235000066013 H 0.0 **** 0.06
36025 H 94.49008498724038 27.290394291333314 81.00236645664421 H 0.0 **** 0.06
36026 C 132.67706149659395 108.1175782393205 111.06423093093147 C 0.0 **** -0.24
36027 H 132.68036956972665 109.02377869384938 111.66947052130647 H 0.0 **** 0.06
36028 H 132.8432979116945 107.2519226602038 111.70556786529204 H 0.0 **** 0.06
36029 H 133.46967382757504 108.175617216429 110.31851627806549 H 0.0 **** 0.06
36030 H 131.71352577065386 108.0190269078339 110.56368149223499 H 0.0 **** 0.06
36031 C 95.99550947650005 156.71669025506873 144.45477210205053 C 0.0 **** -0.24
36032 H 95.34690790109204 157.11307135042836 143.67310962497294 H 0.0 **** 0.06
36033 H 97.01216262109125 157.07788676465992 144.2996087989755 H 0.0 **** 0.06
36034 H 95.9869558452454 155.62723455945087 144.41548699490113 H 0.0 **** 0.06
36035 H 95.63537198829766 157.0484568479913 145.4279540313318 H 0.0 **** 0.06
36036 C 42.398776074598175 160.1705188128248 11.774824394702364 C 0.0 **** -0.24
36037 H 42.20892062880887 161.1543396356617 11.346087093052688 H 0.0 **** 0.06
36038 H 42.04990428227137 160.14972940324907 12.807664885945854 H 0.0 **** 0.06
36039 H 43.4688818680217 159.96281263395085 11.747439275845238 H 0.0 **** 0.06
36040 H 41.86685160731392 159.4141117100295 11.196227047370968 H 0.0 **** 0.06
36041 C 4.079602942523053 112.1053281627963 65.03922421093611 C 0.0 **** -0.24
36042 H 3.443710472952887 111.99109132462533 65.91746444804703 H 0.0 **** 0.06
36043 H 4.364762827943622 111.12142043895852 64.66800515112517 H 0.0 **** 0.06
36044 H 4.974557584020886 112.6655833592495 65.30968397884048 H 0.0 **** 0.06
36045 H 3.534070427714255 112.64314460432678 64.26424878100508 H 0.0 **** 0.06
36046 C 86.11408515985838 152.61199777549328 92.50595578233151 C 0.0 **** -0.24
36047 H 85.84500852371805 153.23661191612118 93.3574803628859 H 0.0 **** 0.06
36048 H 85.4603446634715 152.84236278529823 91.66464875480716 H 0.0 **** 0.06
36049 H 86.00258198792731 151.56180620697862 92.77673782126692 H 0.0 **** 0.06
36050 H 87.14930828726602 152.80705240826492 92.22642591765822 H 0.0 **** 0.06
36051 C 108.85869463920918 15.038242021228939 88.73257378332977 C 0.0 **** -0.24
36052 H 108.23785093942169 14.540249436493568 87.98830524926575 H 0.0 **** 0.06
36053 H 109.10386806394303 14.335939657165937 89.53003199483277 H 0.0 **** 0.06
36054 H 108.31599495133369 15.88632678027517 89.14990275497041 H 0.0 **** 0.06
36055 H 109.77745179846332 15.390066395835923 88.26335946608816 H 0.0 **** 0.06
36056 C 80.66132434387274 50.14538083234953 141.04075008145867 C 0.0 **** -0.24
36057 H 80.07825172109631 51.0632562742162 140.96742090822963 H 0.0 **** 0.06
36058 H 81.45760295503197 50.160464499702414 140.2956540613433 H 0.0 **** 0.06
36059 H 80.01240592790924 49.2876543435238 140.8615927016855 H 0.0 **** 0.06
36060 H 81.09640397676452 50.07017210886977 142.0364355221224 H 0.0 **** 0.06
36061 C 166.38333710249458 138.68582644673106 87.88136783975753 C 0.0 **** -0.24
36062 H 165.85670775641933 138.51577492161238 88.8192175781862 H 0.0 **** 0.06
36063 H 166.09659642790587 139.65532758180862 87.4740147751235 H 0.0 **** 0.06
36064 H 166.12229710671056 137.90128725894672 87.17093798714659 H 0.0 **** 0.06
36065 H 167.45880670626656 138.6693498564867 88.06010748099995 H 0.0 **** 0.06
36066 C 81.88670064379124 6.366221863908031 3.995372411101954 C 0.0 **** -0.24
36067 H 80.96550602792439 6.295351175956171 3.417222772973247 H 0.0 **** 0.06
36068 H 82.36196982532172 7.328769532021269 3.804353045395061 H 0.0 **** 0.06
36069 H 82.56228185645335 5.562547370477411 3.702977968271881 H 0.0 **** 0.06
36070 H 81.65603347103718 6.278491764999636 5.057886090395954 H 0.0 **** 0.06
36071 C 42.6798491370985 120.67314185154558 2.132369402471028 C 0.0 **** -0.24
36072 H 42.51503701622153 120.94588416878827 1.09019486507691 H 0.0 **** 0.06
36073 H 42.20653951433714 121.41011414382763 2.780307667210451 H 0.0 **** 0.06
36074 H 43.751395498635645 120.6448002207778 2.334854921672928 H 0.0 **** 0.06
36075 H 42.24786723970499 119.69066584841622 2.322815535504816 H 0.0 **** 0.06
36076 C 61.76930605949721 71.10172752279594 99.90622956292168 C 0.0 **** -0.24
36077 H 61.42631116042213 72.04426304090879 99.48018324449018 H 0.0 **** 0.06
36078 H 61.19081663749404 70.8766002240933 100.80247834911998 H 0.0 **** 0.06
36079 H 62.824860429046254 71.18336773250526 100.16470397558211 H 0.0 **** 0.06
36080 H 61.63411804095227 70.30360534569607 99.17585199446631 H 0.0 **** 0.06
36081 C 74.22867340852707 90.83514216305032 68.8722412490395 C 0.0 **** -0.24
36082 H 74.46759302823386 90.778079717161 69.93394669895271 H 0.0 **** 0.06
36083 H 73.15400304345428 90.71020265563298 68.73493521639857 H 0.0 **** 0.06
36084 H 74.75702148495952 90.04513070806937 68.33774670282092 H 0.0 **** 0.06
36085 H 74.53465169278894 91.80577070173902 68.48256741094352 H 0.0 **** 0.06
36086 C 33.907126906621414 118.72976106764781 83.79991086950824 C 0.0 **** -0.24
36087 H 34.794397816603094 118.99274742503007 83.22343648950967 H 0.0 **** 0.06
36088 H 33.33992824677233 119.63369424088106 84.02364889712157 H 0.0 **** 0.06
36089 H 34.20849427426917 118.24966005806561 84.73157333477094 H 0.0 **** 0.06
36090 H 33.28813015431835 118.04508153651159 83.22219201205638 H 0.0 **** 0.06
36091 C 69.78362397581054 102.07007123473534 135.84741186840762 C 0.0 **** -0.24
36092 H 70.3352966733541 102.04564543493484 134.908272492628 H 0.0 **** 0.06
36093 H 69.19090891319334 102.98374786021162 135.89700094812156 H 0.0 **** 0.06
36094 H 70.48512208891765 102.04631608634173 136.68148577518912 H 0.0 **** 0.06
36095 H 69.12315792147126 101.2041979270025 135.9038141718101 H 0.0 **** 0.06
36096 C 168.44948293757045 33.7415107597829 103.43816096390151 C 0.0 **** -0.24
36097 H 168.47872439190377 34.67920733889888 103.99344490762036 H 0.0 **** 0.06
36098 H 167.488461834419 33.64868701040443 102.93229203297898 H 0.0 **** 0.06
36099 H 168.58015738564754 32.907481807334236 104.12758831829018 H 0.0 **** 0.06
36100 H 169.25206906155884 33.73219995602962 102.7005255430538 H 0.0 **** 0.06
36101 C 41.66975273970458 107.61359159777493 68.42323218802618 C 0.0 **** -0.24
36102 H 42.10703184438148 108.0816729742373 67.54137676264135 H 0.0 **** 0.06
36103 H 41.71724673981353 106.52974392579233 68.31905099277185 H 0.0 **** 0.06
36104 H 40.62912959102432 107.92429824657512 68.52080292984301 H 0.0 **** 0.06
36105 H 42.22502692121759 107.91940767678915 69.30944055487917 H 0.0 **** 0.06
36106 C 44.2045532904458 31.33337975571908 27.796469935053608 C 0.0 **** -0.24
36107 H 44.83639249295493 32.20798196072394 27.951083611263073 H 0.0 **** 0.06
36108 H 43.229911053740636 31.50568519468743 28.253353441345098 H 0.0 **** 0.06
36109 H 44.67150764079025 30.46144571067549 28.25418035961752 H 0.0 **** 0.06
36110 H 44.07880842017809 31.159884055255276 26.72778819969554 H 0.0 **** 0.06
36111 C 40.36881241865912 53.40114018929876 17.44165479593252 C 0.0 **** -0.24
36112 H 40.99794019982822 54.06442813120481 16.84798609312648 H 0.0 **** 0.06
36113 H 40.13648002552647 52.507005402364825 16.863095525630257 H 0.0 **** 0.06
36114 H 39.44451188640248 53.91644300807644 17.70315760706478 H 0.0 **** 0.06
36115 H 40.89770791642421 53.11842211380781 18.352596213130937 H 0.0 **** 0.06
36116 C 23.268583525900254 11.729920519241318 86.34089249920191 C 0.0 **** -0.24
36117 H 24.18246600693456 12.159036692168002 85.93040583906213 H 0.0 **** 0.06
36118 H 22.583166807494763 12.531297106677584 86.61917780191544 H 0.0 **** 0.06
36119 H 23.51022743284767 11.135445477050041 87.22217896874565 H 0.0 **** 0.06
36120 H 22.798271557061526 11.093373174515818 85.59098361608864 H 0.0 **** 0.06
36121 C 46.847676944828365 160.0451211494753 38.83982542782803 C 0.0 **** -0.24
36122 H 46.55161251056359 159.06929803899413 39.22443078992882 H 0.0 **** 0.06
36123 H 47.01507954777517 159.97639534011486 37.76480574178538 H 0.0 **** 0.06
36124 H 47.76700189858876 160.36586216353004 39.33120924431387 H 0.0 **** 0.06
36125 H 46.057819918314735 160.76824182098972 39.04022633748929 H 0.0 **** 0.06
36126 C 168.68760292047997 30.474651030789204 44.143653327387 C 0.0 **** -0.24
36127 H 168.02293221951123 29.769737652185327 43.645303908463646 H 0.0 **** 0.06
36128 H 169.71670915947942 30.126199462101738 44.059671054301745 H 0.0 **** 0.06
36129 H 168.41351778061966 30.549839528112244 45.19624214939783 H 0.0 **** 0.06
36130 H 168.59564770392825 31.454356482444467 43.673690903109375 H 0.0 **** 0.06
36131 C 58.32232820516701 118.9460147928396 78.89260887401518 C 0.0 **** -0.24
36132 H 58.86903546908978 118.54406345774117 79.74453341555645 H 0.0 **** 0.06
36133 H 59.02808310009078 119.32924584379515 78.15486962063844 H 0.0 **** 0.06
36134 H 57.671188543386236 119.75368162862588 79.22687614221405 H 0.0 **** 0.06
36135 H 57.71924539844754 118.1569391224541 78.44278344550446 H 0.0 **** 0.06
36136 C 13.741955301707776 163.43460233834188 43.33737860516817 C 0.0 **** -0.24
36137 H 13.332072741882484 162.5565692311361 42.837755399285925 H 0.0 **** 0.06
36138 H 12.934704906039315 164.1303149328047 43.56876140589853 H 0.0 **** 0.06
36139 H 14.464276239701604 163.92049992739922 42.68119632153909 H 0.0 **** 0.06
36140 H 14.23581335747005 163.13021225283734 44.25994950759021 H 0.0 **** 0.06
36141 C 121.92605261853558 31.238552709909413 112.52757388984003 C 0.0 **** -0.24
36142 H 122.09307414191576 31.67488158285596 113.5122469846342 H 0.0 **** 0.06
36143 H 122.68178673143953 30.476277177024826 112.33567763331993 H 0.0 **** 0.06
36144 H 121.99567009126673 32.017835175993696 111.76922871396133 H 0.0 **** 0.06
36145 H 120.93581379089423 30.785634122325064 112.49366271889284 H 0.0 **** 0.06
36146 C 165.17111421223208 55.31331990154466 103.43014069218302 C 0.0 **** -0.24
36147 H 165.36892154357255 54.64371054128951 104.26726299761572 H 0.0 **** 0.06
36148 H 164.70336255013638 56.22642728402671 103.79956930735293 H 0.0 **** 0.06
36149 H 164.50275147953877 54.82262954794393 102.72263491977705 H 0.0 **** 0.06
36150 H 166.1087040328745 55.56046517736729 102.93296194701352 H 0.0 **** 0.06
36151 C 46.71761113019498 4.619328030826409 99.0116270975175 C 0.0 **** -0.24
36152 H 46.05319835863331 5.4680484712688155 99.17361618798185 H 0.0 **** 0.06
36153 H 46.34023548304039 4.016471172282593 98.18458812464297 H 0.0 **** 0.06
36154 H 46.75760917440476 4.01111346558389 99.9158131465862 H 0.0 **** 0.06
36155 H 47.71751451873607 4.980325975480156 98.77171071431155 H 0.0 **** 0.06
36156 C 139.46865336757304 41.53958601795901 158.03786635358017 C 0.0 **** -0.24
36157 H 139.03320499206507 41.79779630968187 157.072846495165 H 0.0 **** 0.06
36158 H 139.66709502629533 42.45108452066671 158.60171613284507 H 0.0 **** 0.06
36159 H 140.40250650339016 40.99836772436464 157.8810820887551 H 0.0 **** 0.06
36160 H 138.7732806426589 40.91129325251654 158.5941505879715 H 0.0 **** 0.06
36161 C 20.537947955159574 17.323854540195953 27.410028268869198 C 0.0 **** -0.24
36162 H 20.628104107718706 17.699226986307053 28.429490179082364 H 0.0 **** 0.06
36163 H 19.48348302944153 17.227187323595615 27.150102559812552 H 0.0 **** 0.06
36164 H 21.021118711870827 16.349261017295248 27.33765643887068 H 0.0 **** 0.06
36165 H 21.019445049063044 18.018842111904803 26.722619374163145 H 0.0 **** 0.06
36166 C 98.44858685212262 8.53414113206361 158.50006654113992 C 0.0 **** -0.24
36167 H 98.83265304065691 9.198986240907743 157.7261050812652 H 0.0 **** 0.06
36168 H 98.14985633698078 9.122006919938485 159.36792429274138 H 0.0 **** 0.06
36169 H 99.22653054322666 7.827468705604588 158.7885953483585 H 0.0 **** 0.06
36170 H 97.58736324527882 7.988582014938515 158.11489473212097 H 0.0 **** 0.06
36171 C 158.8806780434513 162.2513388059249 10.887673340103817 C 0.0 **** -0.24
36172 H 159.51536306272246 163.1148315310461 10.69225229726959 H 0.0 **** 0.06
36173 H 157.8437798948095 162.5052466989123 10.663157750005638 H 0.0 **** 0.06
36174 H 158.96585725838884 161.9670369312991 11.936390711250056 H 0.0 **** 0.06
36175 H 159.195456354173 161.41868131210472 10.258045419368784 H 0.0 **** 0.06
36176 C 89.41553250075962 151.74876459810602 56.22599283522604 C 0.0 **** -0.24
36177 H 89.69851178365248 150.9808801417613 55.50571553867486 H 0.0 **** 0.06
36178 H 89.63674142002318 152.73310243183585 55.814448422575126 H 0.0 **** 0.06
36179 H 89.97711697846039 151.60454472720352 57.149070671791506 H 0.0 **** 0.06
36180 H 88.34768748661068 151.6734161559427 56.4347914557942 H 0.0 **** 0.06
36181 C 43.4441941376532 47.07674496636051 67.86643080543583 C 0.0 **** -0.24
36182 H 44.42721709362155 46.98008555844264 67.40541235128539 H 0.0 **** 0.06
36183 H 43.33539367934637 48.07861113177634 68.28134021879215 H 0.0 **** 0.06
36184 H 43.343393408263466 46.34008340208992 68.66327717024932 H 0.0 **** 0.06
36185 H 42.67253799228888 46.90731771698853 67.11536996258486 H 0.0 **** 0.06
36186 C 136.59459657365494 71.12885340359236 107.78622879345241 C 0.0 **** -0.24
36187 H 136.3819946800557 71.03286329559376 106.72114028104369 H 0.0 **** 0.06
36188 H 136.8506245238146 72.16422145880435 108.01402014749266 H 0.0 **** 0.06
36189 H 137.43039625159676 70.48150346695122 108.04983098455958 H 0.0 **** 0.06
36190 H 135.7141654451342 70.83785542081225 108.35922651484344 H 0.0 **** 0.06
36191 C 6.594560362545707 59.634169687707185 52.64899424046666 C 0.0 **** -0.24
36192 H 7.210543156781995 58.839253624397315 53.07071910878946 H 0.0 **** 0.06
36193 H 6.824649387353787 60.57571730870575 53.14839420446526 H 0.0 **** 0.06
36194 H 5.541547478859371 59.393230470397725 52.79295371975391 H 0.0 **** 0.06
36195 H 6.803634392196017 59.72819949792188 51.58329886450768 H 0.0 **** 0.06
36196 C 140.09631202728897 72.189429663547 92.07613750184973 C 0.0 **** -0.24
36197 H 141.0867227660366 72.62527374364788 91.94931613360814 H 0.0 **** 0.06
36198 H 139.41658662692072 72.61364607132104 91.3373337413562 H 0.0 **** 0.06
36199 H 139.72822540608598 72.40823227716832 93.07806605021136 H 0.0 **** 0.06
36200 H 140.15514306969914 71.10948439606253 91.93816528867995 H 0.0 **** 0.06
36201 C 146.70998476091177 140.91904380855232 77.00963155945216 C 0.0 **** -0.24
36202 H 147.44954097043873 140.48182569101826 77.68045427505736 H 0.0 **** 0.06
36203 H 146.22656936825146 140.1282168168546 76.43707031430198 H 0.0 **** 0.06
36204 H 147.2038081680355 141.61183417661576 76.3286667162978 H 0.0 **** 0.06
36205 H 145.9623254755768 141.45504137431786 77.59436858618565 H 0.0 **** 0.06
36206 C 25.515571270188346 69.21334897709465 149.94982810451341 C 0.0 **** -0.24
36207 H 25.453339297739035 68.22509027334144 150.40672539500503 H 0.0 **** 0.06
36208 H 25.314119967323272 69.97461502447055 150.70341987735787 H 0.0 **** 0.06
36209 H 24.77899727307866 69.28893190912325 149.14910331482332 H 0.0 **** 0.06
36210 H 26.51469681381908 69.36120156554927 149.53980621639403 H 0.0 **** 0.06
36211 C 126.76544406118515 104.38339244243102 161.38590005866976 C 0.0 **** -0.24
36212 H 127.70942079597879 103.84009863212685 161.43065438093075 H 0.0 **** 0.06
36213 H 126.43488905887642 104.62174865381678 162.39725752016065 H 0.0 **** 0.06
36214 H 126.0137991440497 103.76520084045279 160.8940054821361 H 0.0 **** 0.06
36215 H 126.90325213387285 105.30561731945855 160.8215833108561 H 0.0 **** 0.06
36216 C 2.4988786979778013 48.58917944880076 162.06569968775247 C 0.0 **** -0.24
36217 H 2.550119100241375 48.64925190727206 163.1521194327615 H 0.0 **** 0.06
36218 H 1.5560772025791607 48.12623592965079 161.7720623944675 H 0.0 **** 0.06
36219 H 3.329427681210859 47.987769237288944 161.69564518020206 H 0.0 **** 0.06
36220 H 2.55937551218679 49.59216848363252 161.6419399118325 H 0.0 **** 0.06
36221 C 36.39233154018517 154.8229412437792 85.17390861036205 C 0.0 **** -0.24
36222 H 37.00673685037896 155.4583681203149 84.53621904717255 H 0.0 **** 0.06
36223 H 36.13244372652866 153.91143460616127 84.63452823174364 H 0.0 **** 0.06
36224 H 35.481732963368486 155.35497404165017 85.44736516792126 H 0.0 **** 0.06
36225 H 36.9490634313278 154.56639800564972 86.07465348297829 H 0.0 **** 0.06
36226 C 168.42962270423448 96.29584194343278 115.03062393661327 C 0.0 **** -0.24
36227 H 168.1063641018167 95.28694991006228 115.28751872638784 H 0.0 **** 0.06
36228 H 168.29919461932738 96.94916652035761 115.894284600883 H 0.0 **** 0.06
36229 H 167.83097334619706 96.66803831083067 114.19955355397533 H 0.0 **** 0.06
36230 H 169.4805187563936 96.27802878732729 114.74348923419507 H 0.0 **** 0.06
36231 C 9.477377819000928 104.39229308398936 107.93289927190455 C 0.0 **** -0.24
36232 H 9.735147668218282 103.39769474048501 107.56893220459199 H 0.0 **** 0.06
36233 H 9.462049120170938 105.09129102222647 107.09681967543128 H 0.0 **** 0.06
36234 H 10.218292470884883 104.71512827159302 108.66391096127757 H 0.0 **** 0.06
36235 H 8.493583820615648 104.36290930857544 108.40149841082405 H 0.0 **** 0.06
36236 C 12.002188611318331 143.83743426401736 34.45123785962957 C 0.0 **** -0.24
36237 H 11.39028588917975 144.50517697062799 35.05757845474446 H 0.0 **** 0.06
36238 H 11.958399810397054 142.82993492617118 34.86522435371651 H 0.0 **** 0.06
36239 H 13.034706685802945 144.1869037732696 34.45479829374331 H 0.0 **** 0.06
36240 H 11.624860220706523 143.8278022202615 33.42900614640219 H 0.0 **** 0.06
36241 C 60.541489213889136 155.4058538367318 30.097948946813517 C 0.0 **** -0.24
36242 H 61.09723818508469 155.69938578749327 29.20732429889358 H 0.0 **** 0.06
36243 H 59.829895109786634 154.62085031366817 29.838828259590855 H 0.0 **** 0.06
36244 H 60.00427293356253 156.2691169385258 30.49040488458553 H 0.0 **** 0.06
36245 H 61.23466778677104 155.03444064132276 30.852821051374008 H 0.0 **** 0.06
36246 C 40.590240613751874 63.5074996247115 66.09392036361845 C 0.0 **** -0.24
36247 H 40.83346071790602 63.590785563780656 65.03466420069557 H 0.0 **** 0.06
36248 H 41.38629920992459 63.9589490338719 66.68653520005547 H 0.0 **** 0.06
36249 H 40.48911382830735 62.45611534011931 66.36171249070156 H 0.0 **** 0.06
36250 H 39.651212629184144 64.02460522964054 66.29261469643794 H 0.0 **** 0.06
36251 C 1.42044157474254 147.16273589292962 143.43384022444468 C 0.0 **** -0.24
36252 H 2.309243946912204 147.78300747052958 143.55486391303822 H 0.0 **** 0.06
36253 H 0.8953298014029656 147.0922859860759 144.38636141493976 H 0.0 **** 0.06
36254 H 1.7162583750684917 146.16594021684813 143.10699778360157 H 0.0 **** 0.06
36255 H 0.7638881508613622 147.6104847503734 142.68905455363392 H 0.0 **** 0.06
36256 C 84.9606762843274 23.96682372284007 119.67656866944952 C 0.0 **** -0.24
36257 H 84.07611013158414 23.388275948112472 119.94285494070405 H 0.0 **** 0.06
36258 H 85.49834703409671 24.246236778541473 120.58280798847417 H 0.0 **** 0.06
36259 H 84.657621525136 24.867724547227866 119.14204670300268 H 0.0 **** 0.06
36260 H 85.60944695549327 23.367187254855402 119.03829372806084 H 0.0 **** 0.06
36261 C 57.429749294577874 103.84980485237503 164.00014214061116 C 0.0 **** -0.24
36262 H 56.9425817117139 104.11352235355164 164.93787555598362 H 0.0 **** 0.06
36263 H 58.45138353554785 104.22991269088476 164.0009770416439 H 0.0 **** 0.06
36264 H 56.87894388172887 104.28926927124911 163.1685805949871 H 0.0 **** 0.06
36265 H 57.44566982120972 102.76455623025663 163.89172536756033 H 0.0 **** 0.06
36266 C 102.13088945776911 103.84632581424671 141.96793557550114 C 0.0 **** -0.24
36267 H 101.67939972210232 103.32953374637668 142.81547919925555 H 0.0 **** 0.06
36268 H 102.12178347015535 104.92063969211347 142.14988319566447 H 0.0 **** 0.06
36269 H 101.56276509986085 103.62576473538519 141.0644746206503 H 0.0 **** 0.06
36270 H 103.15989271132764 103.50716141025828 141.84215783152823 H 0.0 **** 0.06
36271 C 29.42597548846105 75.47700254671717 134.09404608605854 C 0.0 **** -0.24
36272 H 30.01356078019292 76.36040257987133 134.3413739163745 H 0.0 **** 0.06
36273 H 29.74203490417223 75.0900201577397 133.12510270665572 H 0.0 **** 0.06
36274 H 28.369809370605793 75.74382583465308 134.05147073557328 H 0.0 **** 0.06
36275 H 29.577945149058422 74.71470658965791 134.85734107818357 H 0.0 **** 0.06
36276 C 22.605674170725194 168.07164868327942 90.7870411617183 C 0.0 **** -0.24
36277 H 23.42441649963854 168.14230556499407 90.0692293073466 H 0.0 **** 0.06
36278 H 23.00950690185229 167.8681687956432 91.77861679401994 H 0.0 **** 0.06
36279 H 21.93595929524426 167.2631947856992 90.49325982292586 H 0.0 **** 0.06
36280 H 22.055332213449503 169.012591116048 90.80431153279454 H 0.0 **** 0.06
36281 C 40.953919822110436 146.88061507081787 89.36193862032405 C 0.0 **** -0.24
36282 H 40.25447697223001 147.38221718600113 88.69243639515423 H 0.0 **** 0.06
36283 H 41.46012006264411 147.6234435929539 89.97872407581931 H 0.0 **** 0.06
36284 H 41.689549704763635 146.33164420669203 88.77453515077107 H 0.0 **** 0.06
36285 H 40.40815227199596 146.18631449815234 90.00157891585512 H 0.0 **** 0.06
36286 C 101.71607075571981 68.05232617299966 145.18221662478743 C 0.0 **** -0.24
36287 H 101.89195173903505 67.50754594637746 144.2542642610774 H 0.0 **** 0.06
36288 H 102.31581611700847 67.61337899079021 145.97970647740732 H 0.0 **** 0.06
36289 H 100.66003432636938 67.99068981773821 145.4444516254702 H 0.0 **** 0.06
36290 H 101.99703281668656 69.09662107746225 145.0488463326195 H 0.0 **** 0.06
36291 C 99.76615246101125 36.29717126789711 9.622945814398442 C 0.0 **** -0.24
36292 H 99.76027315046272 36.73166614836211 8.623419020761048 H 0.0 **** 0.06
36293 H 98.77998613231833 35.89333538014981 9.849603489358628 H 0.0 **** 0.06
36294 H 100.02107977999276 37.06780010493739 10.351627151416963 H 0.0 **** 0.06
36295 H 100.50654586140723 35.49766601344129 9.666822683785576 H 0.0 **** 0.06
36296 C 13.723009383484126 129.61378074834857 10.563793645424582 C 0.0 **** -0.24
36297 H 13.563639758291188 129.631845505023 9.485371562297466 H 0.0 **** 0.06
36298 H 12.881582928157101 129.11491993608695 11.04641735217023 H 0.0 **** 0.06
36299 H 13.804244466746027 130.634545717066 10.937152615916517 H 0.0 **** 0.06
36300 H 14.642596177326219 129.07182251471605 10.784804028547825 H 0.0 **** 0.06
36301 C 63.453337739381396 9.033640024299757 170.0666990242387 C 0.0 **** -0.24
36302 H 63.36716370845461 10.116715331080172 169.98474735626178 H 0.0 **** 0.06
36303 H 63.47331705529042 8.749088786999664 171.11923341126945 H 0.0 **** 0.06
36304 H 64.3736134501641 8.703527898054801 169.58369403955376 H 0.0 **** 0.06
36305 H 62.59947041599837 8.563060172947928 169.57861665319695 H 0.0 **** 0.06
36306 C 43.83960286275003 136.21534543985462 54.54098747332603 C 0.0 **** -0.24
36307 H 43.95035923319014 135.2090453100766 54.136171120830056 H 0.0 **** 0.06
36308 H 44.73874748609259 136.4841748021562 55.09604415988059 H 0.0 **** 0.06
36309 H 42.978120796249286 136.24596490967582 55.20820129712854 H 0.0 **** 0.06
36310 H 43.69193369931335 136.92072449549818 53.72405335530152 H 0.0 **** 0.06
36311 C 124.6479585071786 63.65897078707269 146.71502534734879 C 0.0 **** -0.24
36312 H 124.26777654066115 63.84202092955928 147.72090633001164 H 0.0 **** 0.06
36313 H 125.72585260465306 63.50362734137087 146.7574741962733 H 0.0 **** 0.06
36314 H 124.42907272487577 64.5189006662057 146.08243085850216 H 0.0 **** 0.06
36315 H 124.1681668605126 62.77231545765295 146.30176095149423 H 0.0 **** 0.06
36316 C 15.813615578908447 51.2339628765053 35.17935911972208 C 0.0 **** -0.24
36317 H 14.944910143625329 51.18295794976544 35.836121300968216 H 0.0 **** 0.06
36318 H 16.706414615310457 50.94575680478735 35.735125574024295 H 0.0 **** 0.06
36319 H 15.928461083290443 52.253041745237624 34.809613310546524 H 0.0 **** 0.06
36320 H 15.67421124864812 50.554845684167304 34.338630603018885 H 0.0 **** 0.06
36321 C 145.79643669162465 116.71081756185549 123.229751461517 C 0.0 **** -0.24
36322 H 145.53225900610937 117.63709638231518 123.74029518306389 H 0.0 **** 0.06
36323 H 145.05643610997137 116.49869905251279 122.45706581711775 H 0.0 **** 0.06
36324 H 145.81566909433775 115.89240009664249 123.94893859496548 H 0.0 **** 0.06
36325 H 146.77979508517896 116.81657477126888 122.77222676177459 H 0.0 **** 0.06
36326 C 130.13870319637996 115.6021748053858 133.08717041428918 C 0.0 **** -0.24
36327 H 130.49604293479405 114.69180502185714 133.5679430630253 H 0.0 **** 0.06
36328 H 130.13605824653865 115.46349919451944 132.005646818912 H 0.0 **** 0.06
36329 H 130.797005955665 116.43146205535021 133.34612083444068 H 0.0 **** 0.06
36330 H 129.12726870771644 115.82037757259212 133.42859974365413 H 0.0 **** 0.06
36331 C 27.296661935028737 71.41319935876508 9.979296041772159 C 0.0 **** -0.24
36332 H 26.368049602003452 70.97240087546797 10.342366319596351 H 0.0 **** 0.06
36333 H 27.19484387314776 72.49837142023152 9.950229152130703 H 0.0 **** 0.06
36334 H 27.508630381527382 71.03994626588401 8.977470864524378 H 0.0 **** 0.06
36335 H 28.113304315644427 71.14272173080877 10.648626497497908 H 0.0 **** 0.06
36336 C 76.89431253756393 41.94580604955229 26.185519447707804 C 0.0 **** -0.24
36337 H 77.17291599223557 42.55962149239605 27.042507150159395 H 0.0 **** 0.06
36338 H 77.1040951741142 40.899017496617404 26.40496454580898 H 0.0 **** 0.06
36339 H 77.47120198248354 42.2567678746226 25.313624074778858 H 0.0 **** 0.06
36340 H 75.83113947737516 42.06968466055213 25.979936582404036 H 0.0 **** 0.06
36341 C 15.735970749835673 50.17752880410373 31.170681380744497 C 0.0 **** -0.24
36342 H 14.655648365660454 50.31857940681107 31.15089657209988 H 0.0 **** 0.06
36343 H 16.005445951305916 49.34636387219061 30.517940087082025 H 0.0 **** 0.06
36344 H 16.05552397364687 49.95910579315557 32.189335047611294 H 0.0 **** 0.06
36345 H 16.22732778263483 51.08717762935834 30.822614547711083 H 0.0 **** 0.06
36346 C 30.56323497144824 54.04180520286573 118.09719678929781 C 0.0 **** -0.24
36347 H 31.09648068790203 53.61890302500248 118.94854979245008 H 0.0 **** 0.06
36348 H 30.111823578352045 54.99071495589095 118.38594790219503 H 0.0 **** 0.06
36349 H 29.78391304147746 53.35015557664866 117.77785324723231 H 0.0 **** 0.06
36350 H 31.26151866653656 54.206349095022404 117.27603578300062 H 0.0 **** 0.06
36351 C 56.505189614654086 26.974296749090115 28.12415363350334 C 0.0 **** -0.24
36352 H 57.323215452018246 26.333556652016114 28.451213265302442 H 0.0 **** 0.06
36353 H 56.273979584950624 26.76423101744558 27.07988283761574 H 0.0 **** 0.06
36354 H 56.79851774836999 28.01954747474548 28.229290470854266 H 0.0 **** 0.06
36355 H 55.62472257928101 26.780393048128417 28.737493966974625 H 0.0 **** 0.06
36356 C 59.284145160531466 79.33552383763634 49.26194295279279 C 0.0 **** -0.24
36357 H 60.15381283562493 79.56269837810602 48.64500935813237 H 0.0 **** 0.06
36358 H 58.41412506019765 79.86344900633613 48.87139176769902 H 0.0 **** 0.06
36359 H 59.47397952592968 79.65418630680009 50.28705140492484 H 0.0 **** 0.06
36360 H 59.097085145024096 78.26157414031036 49.24400418486371 H 0.0 **** 0.06
36361 C 107.45101741958644 22.42447423743465 130.62531493632935 C 0.0 **** -0.24
36362 H 106.90438196996067 23.156576480353664 130.03084527498532 H 0.0 **** 0.06
36363 H 108.18965895083298 22.936761150325623 131.242023943388 H 0.0 **** 0.06
36364 H 107.95601435267645 21.721651896980376 129.96198088381465 H 0.0 **** 0.06
36365 H 106.754647080301 21.883207057962636 131.2651808241814 H 0.0 **** 0.06
36366 C 56.88385445057794 93.8016751262808 126.74721964302478 C 0.0 **** -0.24
36367 H 57.277089514565446 93.32224862610195 127.64297271480959 H 0.0 **** 0.06
36368 H 57.02458929191066 94.88098349512825 126.82122229618537 H 0.0 **** 0.06
36369 H 55.8212623207297 93.57960854965012 126.65229036785553 H 0.0 **** 0.06
36370 H 57.41362445879737 93.4253727911055 125.87176576527935 H 0.0 **** 0.06
36371 C 97.01285628331175 117.53501585296206 117.20455151374694 C 0.0 **** -0.24
36372 H 96.2299044183778 117.33030090273735 116.47480818005619 H 0.0 **** 0.06
36373 H 97.97835555929245 117.58104850048761 116.69904644247424 H 0.0 **** 0.06
36374 H 97.02994895625949 116.73914286463213 117.95003742895972 H 0.0 **** 0.06
36375 H 96.81268449077288 118.4872993617061 117.69505996520184 H 0.0 **** 0.06
36376 C 55.876711718254796 8.680185014543156 96.2900082729187 C 0.0 **** -0.24
36377 H 56.51150056145387 9.377737666241103 96.83578807136882 H 0.0 **** 0.06
36378 H 55.13875800483687 9.236464066512667 95.71163544303036 H 0.0 **** 0.06
36379 H 55.36662978065887 8.02537926028441 96.99618460585933 H 0.0 **** 0.06
36380 H 56.489958526069614 8.08115906513467 95.61642497141617 H 0.0 **** 0.06
36381 C 72.97103280807072 12.627402733748752 83.55020462992294 C 0.0 **** -0.24
36382 H 72.22189052691132 13.10877298092003 82.92221204199339 H 0.0 **** 0.06
36383 H 73.93250501201662 12.62931243596745 83.03519513214552 H 0.0 **** 0.06
36384 H 72.66885820198263 11.599471039472363 83.75354955330819 H 0.0 **** 0.06
36385 H 73.06087749137215 13.172054478635197 84.48986179224467 H 0.0 **** 0.06
36386 C 70.62697780518566 65.46220173229824 25.086381939387024 C 0.0 **** -0.24
36387 H 71.30968559661262 64.8667313096367 24.480974467612498 H 0.0 **** 0.06
36388 H 70.83646366061605 66.52166709872569 24.93341120759385 H 0.0 **** 0.06
36389 H 70.76274270934823 65.2141445440295 26.139268789552204 H 0.0 **** 0.06
36390 H 69.59937703056961 65.24846613997035 24.791722916328467 H 0.0 **** 0.06
36391 C 89.65389641469734 106.17661894457936 13.504287933856062 C 0.0 **** -0.24
36392 H 88.8493470413692 105.98640775504441 12.793990678145633 H 0.0 **** 0.06
36393 H 89.94554402143567 107.22635788523709 13.448493028974696 H 0.0 **** 0.06
36394 H 90.50984105643082 105.548094649609 13.260177010703899 H 0.0 **** 0.06
36395 H 89.30932436181266 105.94754489333533 14.512776589554846 H 0.0 **** 0.06
36396 C 19.775421914843918 149.5980032126628 38.69609351812949 C 0.0 **** -0.24
36397 H 19.191219124988095 149.70014291559087 37.78050801144542 H 0.0 **** 0.06
36398 H 20.62168740655156 148.93581890964137 38.5142973678889 H 0.0 **** 0.06
36399 H 19.147228838625836 149.1784527533689 39.48234607092536 H 0.0 **** 0.06
36400 H 20.140050183310393 150.57698783392314 39.00568275771309 H 0.0 **** 0.06
36401 C 133.6971595327314 121.77160620678981 15.971232315471063 C 0.0 **** -0.24
36402 H 133.34491937302806 120.74051298418476 15.963966077634872 H 0.0 **** 0.06
36403 H 134.15381424388198 122.00637251519817 15.008420541789079 H 0.0 **** 0.06
36404 H 134.43486225103982 121.89862970826758 16.763868378698263 H 0.0 **** 0.06
36405 H 132.85601787397286 122.44177721885453 16.1468588866066 H 0.0 **** 0.06
36406 C 91.99060384756564 97.75854604994757 102.47068670496742 C 0.0 **** -0.24
36407 H 92.56323422447662 97.344331116241 103.30056538722522 H 0.0 **** 0.06
36408 H 91.79740414751296 96.97590612533617 101.73751429038134 H 0.0 **** 0.06
36409 H 92.55845558240918 98.56382319766354 102.00471212796714 H 0.0 **** 0.06
36410 H 91.04399668447725 98.15022044891515 102.8428764766108 H 0.0 **** 0.06
36411 C 167.27549340821523 61.13620841543627 47.727884563195076 C 0.0 **** -0.24
36412 H 167.0429957594653 60.72424695211794 48.71013340866537 H 0.0 **** 0.06
36413 H 166.7854088601426 62.103490368504254 47.615942833306406 H 0.0 **** 0.06
36414 H 166.91898989114418 60.455501378833645 46.955976986307505 H 0.0 **** 0.06
36415 H 168.35389427448013 61.26158941897933 47.63273021482637 H 0.0 **** 0.06
36416 C 100.49048704700112 43.17582542468415 81.51656954278917 C 0.0 **** -0.24
36417 H 101.36158004155456 43.37095888039363 82.1406705492534 H 0.0 **** 0.06
36418 H 100.05108933411736 42.21834376186655 81.79585916501662 H 0.0 **** 0.06
36419 H 100.79351030363361 43.14484558225888 80.46995005944734 H 0.0 **** 0.06
36420 H 99.75589657615689 43.96797403525673 81.65902860634549 H 0.0 **** 0.06
36421 C 59.54592852743406 26.72031596605916 20.804696319903712 C 0.0 **** -0.24
36422 H 58.70487337284351 27.068941542969668 21.403361165232866 H 0.0 **** 0.06
36423 H 59.996259386835916 25.848826093856957 21.28234867271553 H 0.0 **** 0.06
36424 H 60.28844535066892 27.51459631224492 20.724598263878477 H 0.0 **** 0.06
36425 H 59.19538041048685 26.44830432186626 19.808788249328018 H 0.0 **** 0.06
36426 C 170.9797473302015 154.14340653812764 31.924509643199485 C 0.0 **** -0.24
36427 H 171.8595874024374 153.85830164973683 32.50243686288566 H 0.0 **** 0.06
36428 H 171.1626682522596 153.94880087381318 30.867692838240828 H 0.0 **** 0.06
36429 H 170.7779690097376 155.20477711821167 32.069951018878584 H 0.0 **** 0.06
36430 H 170.1222329098368 153.56094028850126 32.25852493894482 H 0.0 **** 0.06
36431 C 164.15180226399025 1.1664532307422917 147.8835175115596 C 0.0 **** -0.24
36432 H 164.92441950521462 0.5023108444738966 147.4958814974711 H 0.0 **** 0.06
36433 H 164.50557366124232 1.6378649620737349 148.80090237492288 H 0.0 **** 0.06
36434 H 163.25068769215687 0.5905288324498201 148.09465681569674 H 0.0 **** 0.06
36435 H 163.92728985816768 1.9343805585846212 147.14357293878487 H 0.0 **** 0.06
36436 C 109.3673207220059 78.5804594337192 128.82954407218548 C 0.0 **** -0.24
36437 H 108.41124462012905 79.0693643780657 128.64108282288421 H 0.0 **** 0.06
36438 H 109.43711121022616 77.67662753300199 128.2242372325075 H 0.0 **** 0.06
36439 H 109.43880321532757 78.3181259835229 129.8853379032846 H 0.0 **** 0.06
36440 H 110.17988889800935 79.25865925269113 128.5671680505189 H 0.0 **** 0.06
36441 C 61.903625322106706 156.36386991571226 12.813190402948088 C 0.0 **** -0.24
36442 H 61.90289116050049 157.37931904031382 13.210547606586488 H 0.0 **** 0.06
36443 H 62.40668991952889 155.69973548932705 13.51568427963548 H 0.0 **** 0.06
36444 H 62.4274596910509 156.34866132015173 11.858027377111675 H 0.0 **** 0.06
36445 H 60.875990300152836 156.03052186855902 12.668983877862821 H 0.0 **** 0.06
36446 C 82.22111866719544 76.18663606207035 4.047349362409733 C 0.0 **** -0.24
36447 H 82.55378158419447 76.67694404254837 4.962704307978868 H 0.0 **** 0.06
36448 H 82.21348824671719 75.10682664599233 4.195985117448373 H 0.0 **** 0.06
36449 H 82.90060746205427 76.43843597913025 3.232885750938067 H 0.0 **** 0.06
36450 H 81.21510868494282 76.52611755840267 3.7997237805520854 H 0.0 **** 0.06
36451 C 138.4796185649771 83.18164380930249 80.64452548340894 C 0.0 **** -0.24
36452 H 139.54971781606542 83.34391942119166 80.77263636039092 H 0.0 **** 0.06
36453 H 137.9796986179688 84.14294872593919 80.52073887790328 H 0.0 **** 0.06
36454 H 138.0808851471938 82.67515010630423 81.52325522790854 H 0.0 **** 0.06
36455 H 138.3091949498777 82.5666471896644 79.76070585099525 H 0.0 **** 0.06
36456 C 27.07307658489436 111.04480799837924 56.85906458153603 C 0.0 **** -0.24
36457 H 28.06171628887671 111.40919061181492 56.578224665681674 H 0.0 **** 0.06
36458 H 27.09034644241357 110.71394067184636 57.897568675766635 H 0.0 **** 0.06
36459 H 26.798595709657157 110.209066228589 56.214767172492984 H 0.0 **** 0.06
36460 H 26.345315069939538 111.84711735381657 56.74495931523428 H 0.0 **** 0.06
36461 C 31.465077308276477 44.86190835318894 73.71453225401444 C 0.0 **** -0.24
36462 H 30.912201871763727 43.93133643506479 73.58318590333567 H 0.0 **** 0.06
36463 H 30.7817800088701 45.70585220577493 73.62035286861078 H 0.0 **** 0.06
36464 H 32.24114980771412 44.933761516825484 72.95257045596497 H 0.0 **** 0.06
36465 H 31.924440591189807 44.87387094195759 74.70326400420527 H 0.0 **** 0.06
36466 C 18.475488008268513 170.9636351039664 25.573051548169936 C 0.0 **** -0.24
36467 H 18.966466131797432 171.75453818866896 26.139954515207634 H 0.0 **** 0.06
36468 H 19.20619663996419 170.46840621014547 24.9321112420066 H 0.0 **** 0.06
36469 H 17.68578937862395 171.3947159943487 24.95781133349898 H 0.0 **** 0.06
36470 H 18.043827249534928 170.23693513153205 26.26095438387602 H 0.0 **** 0.06
36471 C 171.71838907277277 121.3587396879962 35.191303825130376 C 0.0 **** -0.24
36472 H 170.92390526987984 120.61319779637827 35.17214813936741 H 0.0 **** 0.06
36473 H 172.63596132775643 120.92177020462842 34.794492692459926 H 0.0 **** 0.06
36474 H 171.88616572577564 121.68512987172997 36.218292950459386 H 0.0 **** 0.06
36475 H 171.42951901268174 122.21385458711919 34.58128518111653 H 0.0 **** 0.06
36476 C 14.92869124426511 116.9245560151362 121.94238490617215 C 0.0 **** -0.24
36477 H 15.430003725543514 116.25871846229646 122.64434738015811 H 0.0 **** 0.06
36478 H 15.288467322999452 116.72609072716097 120.93256318891798 H 0.0 **** 0.06
36479 H 15.143076441762958 117.9598319864715 122.2073657199092 H 0.0 **** 0.06
36480 H 13.852479025436764 116.75379795857296 121.98462423789599 H 0.0 **** 0.06
36481 C 161.38569533776584 154.55413087508947 46.922284841539934 C 0.0 **** -0.24
36482 H 161.15978080088584 153.94070815746937 47.79379407365241 H 0.0 **** 0.06
36483 H 160.96544164084443 155.55044001282857 47.059387414878444 H 0.0 **** 0.06
36484 H 160.95318738935882 154.0959713132849 46.03344242293451 H 0.0 **** 0.06
36485 H 162.4673500802121 154.6290705102827 46.80264661763049 H 0.0 **** 0.06
36486 C 64.35031857878627 27.841243517797068 92.54349200024018 C 0.0 **** -0.24
36487 H 63.86347203041112 28.019636821055343 91.58513119643577 H 0.0 **** 0.06
36488 H 65.30134670572622 27.334291514824372 92.3775872746977 H 0.0 **** 0.06
36489 H 63.70936906965679 27.21662931490397 93.16491776581742 H 0.0 **** 0.06
36490 H 64.52816701847064 28.792797497531154 93.04404881850925 H 0.0 **** 0.06
36491 C 106.60533443070491 39.505197366944486 160.56805352286867 C 0.0 **** -0.24
36492 H 106.75624642455284 40.57217674558228 160.73152448731156 H 0.0 **** 0.06
36493 H 106.5698604539624 39.302760133988244 159.49689527542333 H 0.0 **** 0.06
36494 H 105.6677028471847 39.19586544024571 161.02794906382152 H 0.0 **** 0.06
36495 H 107.43048873632677 38.949934524397236 161.0153641147375 H 0.0 **** 0.06
36496 C 165.3068021656428 21.753315636637417 40.67426405674094 C 0.0 **** -0.24
36497 H 164.79682816602119 22.454525686131092 41.33540261464293 H 0.0 **** 0.06
36498 H 165.63478140225772 20.886759548770023 41.249180900774164 H 0.0 **** 0.06
36499 H 166.1720451306839 22.24106272635256 40.2259755823674 H 0.0 **** 0.06
36500 H 164.62329463133213 21.431003963168436 39.88948460466089 H 0.0 **** 0.06
36501 C 93.26420686014546 82.2496257946232 152.50088731790444 C 0.0 **** -0.24
36502 H 93.19117767526342 81.28079302559702 152.00755075140077 H 0.0 **** 0.06
36503 H 94.31041031185049 82.47277095992419 152.70881697666763 H 0.0 **** 0.06
36504 H 92.70441689224265 82.2243033247354 153.43537976113765 H 0.0 **** 0.06
36505 H 92.85044287995123 83.02104535095683 151.85050246647796 H 0.0 **** 0.06
36506 C 95.22750418807689 109.49200922251632 54.84493750399348 C 0.0 **** -0.24
36507 H 96.09557964571118 108.95504274041426 54.46230688926788 H 0.0 **** 0.06
36508 H 94.86358895639822 108.99905601295833 55.74625987387249 H 0.0 **** 0.06
36509 H 94.4413901105197 109.49472153254356 54.08969284619559 H 0.0 **** 0.06
36510 H 95.50954834881543 110.51819271759129 55.079504546563356 H 0.0 **** 0.06
36511 C 75.63241221617659 4.258737512124412 76.37593392417918 C 0.0 **** -0.24
36512 H 75.74166366015334 3.9457282896519246 77.41466659203215 H 0.0 **** 0.06
36513 H 75.57852418337995 3.3790890214909837 75.73536794993782 H 0.0 **** 0.06
36514 H 76.49073455212738 4.86588280314362 76.08772990504286 H 0.0 **** 0.06
36515 H 74.72047334103311 4.844979119016273 76.2671615721132 H 0.0 **** 0.06
36516 C 70.43552514359624 104.31123713970445 151.69046397432027 C 0.0 **** -0.24
36517 H 71.45604389049319 104.34736459940473 151.30777936543947 H 0.0 **** 0.06
36518 H 70.30951043112367 103.41996535117852 152.3046415205299 H 0.0 **** 0.06
36519 H 69.73657537293846 104.2801630878837 150.85495886277891 H 0.0 **** 0.06
36520 H 70.24212645807108 105.19883277825716 152.29261686845035 H 0.0 **** 0.06
36521 C 18.88604237272864 114.06905210709812 98.15823356939217 C 0.0 **** -0.24
36522 H 19.336867014625568 113.17613232355069 97.7259448135531 H 0.0 **** 0.06
36523 H 17.886370917318516 113.83026810131997 98.5228242960053 H 0.0 **** 0.06
36524 H 18.81880340830139 114.84623487723235 97.39772846424063 H 0.0 **** 0.06
36525 H 19.501053651132054 114.42137806146496 98.98627145017309 H 0.0 **** 0.06
36526 C 132.36002049451753 13.867807795745904 55.49039451377692 C 0.0 **** -0.24
36527 H 131.2794806163834 14.006991253593583 55.46703419331703 H 0.0 **** 0.06
36528 H 132.70951934223302 13.91777946913004 56.521237154260376 H 0.0 **** 0.06
36529 H 132.8395087227081 14.651294977132778 54.904458483011865 H 0.0 **** 0.06
36530 H 132.6096750621295 12.894709041837928 55.067758038134656 H 0.0 **** 0.06
36531 C 3.72376679932691 164.39885431074282 17.441110189874756 C 0.0 **** -0.24
36532 H 3.138768795412375 163.6223131910736 17.934408703247755 H 0.0 **** 0.06
36533 H 3.904072857837207 165.21615952921525 18.140418512447148 H 0.0 **** 0.06
36534 H 3.1746311698720433 164.77343560694646 16.57777591335816 H 0.0 **** 0.06
36535 H 4.676204470586441 163.98337880716855 17.114493094836938 H 0.0 **** 0.06
36536 C 158.41690898634923 148.77515604426048 60.593050879219945 C 0.0 **** -0.24
36537 H 158.80817415379437 148.26085442638035 59.71520259923466 H 0.0 **** 0.06
36538 H 157.38073711134302 148.4795015691718 60.75556378417053 H 0.0 **** 0.06
36539 H 158.46699313871852 149.85232827655338 60.43443896015215 H 0.0 **** 0.06
36540 H 159.0133159151962 148.5081811270872 61.465145677820104 H 0.0 **** 0.06
36541 C 57.67972228680199 7.521548852110158 159.4886355984696 C 0.0 **** -0.24
36542 H 58.687564940421595 7.195397625258444 159.7420516567424 H 0.0 **** 0.06
36543 H 56.95598301870665 6.95479008245178 160.07525658580295 H 0.0 **** 0.06
36544 H 57.499468633368096 7.353002795113312 158.42684322813946 H 0.0 **** 0.06
36545 H 57.57454344301935 8.583478742322079 159.7104857743952 H 0.0 **** 0.06
36546 C 35.52241136107028 168.67220308899755 10.299058317992149 C 0.0 **** -0.24
36547 H 34.660023221309416 168.98030324323395 10.890273319815208 H 0.0 **** 0.06
36548 H 36.21697553027752 169.5082618534206 10.207223732806597 H 0.0 **** 0.06
36549 H 35.19234356329139 168.36308174144938 9.307887094952378 H 0.0 **** 0.06
36550 H 36.02173582489985 167.83806909764576 10.7926186143836 H 0.0 **** 0.06
36551 C 105.40291878035998 37.7311102543261 44.99163155334429 C 0.0 **** -0.24
36552 H 104.71352031473734 38.193951513095726 44.28513178360063 H 0.0 **** 0.06
36553 H 104.89904153670906 36.91414397936035 45.509176762956486 H 0.0 **** 0.06
36554 H 105.73101435641595 38.47426382597541 45.71803036413564 H 0.0 **** 0.06
36555 H 106.26722220286936 37.34244857792612 44.4538761660161 H 0.0 **** 0.06
36556 C 65.80062723921628 138.22366277821715 89.05527927102634 C 0.0 **** -0.24
36557 H 66.67867306948 138.11672995917843 89.69178226500337 H 0.0 **** 0.06
36558 H 66.07742164366465 138.7493808416044 88.14069488541276 H 0.0 **** 0.06
36559 H 65.03581048025475 138.7921229704084 89.58415214008289 H 0.0 **** 0.06
36560 H 65.41158672141847 137.23743183438518 88.8045560143745 H 0.0 **** 0.06
36561 C 163.4328120745592 2.4916314553195704 0.54291356832357 C 0.0 **** -0.24
36562 H 163.74049297372864 2.523277396479571 1.5877069259986172 H 0.0 **** 0.06
36563 H 162.72577138534862 3.298396612545197 0.34786831735675605 H 0.0 **** 0.06
36564 H 162.95685262001018 1.533663387940848 0.33328779037464074 H 0.0 **** 0.06
36565 H 164.30725608624704 2.6104622314884054 -0.09636812543027418 H 0.0 **** 0.06
36566 C 98.29101933270675 65.05854089536723 86.40432388089319 C 0.0 **** -0.24
36567 H 98.45060302129156 66.01337546171746 86.90482979546282 H 0.0 **** 0.06
36568 H 99.23586385207227 64.51755753907499 86.34524724174781 H 0.0 **** 0.06
36569 H 97.90813130078911 65.23443034781863 85.39961506277652 H 0.0 **** 0.06
36570 H 97.56858325036958 64.46863975392735 86.96987757529494 H 0.0 **** 0.06
36571 C 101.52515029496519 115.89088594519981 99.02344605103298 C 0.0 **** -0.24
36572 H 100.62633892627508 115.31009398839097 99.23480607650262 H 0.0 **** 0.06
36573 H 102.23807340159959 115.76609972659344 99.8396765843124 H 0.0 **** 0.06
36574 H 101.26200221244514 116.94439668131662 98.92718386307396 H 0.0 **** 0.06
36575 H 101.9725638471202 115.54070135081244 98.09325572260832 H 0.0 **** 0.06
36576 C 29.088287256084186 93.52916573116084 168.7313939024707 C 0.0 **** -0.24
36577 H 28.822121290455584 94.48202775902837 169.18843635975043 H 0.0 **** 0.06
36578 H 28.8845492861024 92.720075705185 169.4335999875651 H 0.0 **** 0.06
36579 H 30.148410243448907 93.53241499115327 168.47760681862957 H 0.0 **** 0.06
36580 H 28.497787046120948 93.38246038146738 167.82683863237366 H 0.0 **** 0.06
36581 C 52.39680322768287 108.28726395672567 54.414354162826854 C 0.0 **** -0.24
36582 H 51.74216231336909 108.49486678222567 55.26091929996491 H 0.0 **** 0.06
36583 H 53.17669371077169 107.59119735192678 54.72087701964723 H 0.0 **** 0.06
36584 H 52.851837215292306 109.21595477206142 54.071257091273864 H 0.0 **** 0.06
36585 H 51.814388416479105 107.84767654658421 53.60414239824162 H 0.0 **** 0.06
36586 C 13.584423435120073 50.45564059647825 3.2535176993411667 C 0.0 **** -0.24
36587 H 12.870112994166277 51.2723547552975 3.1508251801410694 H 0.0 **** 0.06
36588 H 14.456325090316227 50.803764966260474 3.807391434042053 H 0.0 **** 0.06
36589 H 13.89236729342258 50.11641434878575 2.26482497716335 H 0.0 **** 0.06
36590 H 13.117455827903825 49.63076141260639 3.792216861219792 H 0.0 **** 0.06
36591 C 11.776420318456758 94.32906125558964 17.554116063592232 C 0.0 **** -0.24
36592 H 11.81003149775455 95.13792844627307 18.284005330787352 H 0.0 **** 0.06
36593 H 11.290774636205924 93.45927842389125 17.997870855389692 H 0.0 **** 0.06
36594 H 12.790357667764312 94.06678584383388 17.254521665254714 H 0.0 **** 0.06
36595 H 11.211211791122537 94.6536661331283 16.67979449136726 H 0.0 **** 0.06
36596 C 135.27658227730439 136.2879516588566 47.04094469976798 C 0.0 **** -0.24
36597 H 135.02208397848923 136.38806789727397 45.98523376694554 H 0.0 **** 0.06
36598 H 135.30484782843035 137.27513624169117 47.502758360312356 H 0.0 **** 0.06
36599 H 136.2533266906228 135.8134208336939 47.13588170721934 H 0.0 **** 0.06
36600 H 134.52475365919884 135.67488991086938 47.53881841003954 H 0.0 **** 0.06
36601 C 86.64284677398904 149.67413059409455 38.19341597867344 C 0.0 **** -0.24
36602 H 87.43739448648805 149.0538011137275 38.609310773977484 H 0.0 **** 0.06
36603 H 86.9121341947682 150.72526216791113 38.29603605260465 H 0.0 **** 0.06
36604 H 85.71437696672137 149.48296586167982 38.730771564953045 H 0.0 **** 0.06
36605 H 86.50883900816194 149.4336245348731 37.13872979742473 H 0.0 **** 0.06
36606 C 52.02983610129375 86.55097855188187 22.41017520734073 C 0.0 **** -0.24
36607 H 52.538270658171825 87.01611058574682 21.56503929782403 H 0.0 **** 0.06
36608 H 52.686065947977056 86.56150878028129 23.27979504179612 H 0.0 **** 0.06
36609 H 51.77591191277628 85.52116742750641 22.158280886202533 H 0.0 **** 0.06
36610 H 51.11919308264599 87.10492101468134 22.634766352639843 H 0.0 **** 0.06
36611 C 78.68991488612721 133.9702635216958 30.250657395963913 C 0.0 **** -0.24
36612 H 77.92663948985779 133.6952315105264 29.523226830672172 H 0.0 **** 0.06
36613 H 78.35020196090294 133.70146750062298 31.25209739943051 H 0.0 **** 0.06
36614 H 78.86670044185844 135.0438792470207 30.203336450162965 H 0.0 **** 0.06
36615 H 79.61423743999735 133.43865359966648 30.025433327125995 H 0.0 **** 0.06
36616 C 136.1461006271416 20.848086502179825 56.132644799516356 C 0.0 **** -0.24
36617 H 136.50457268205338 21.875182618272277 56.057707722729674 H 0.0 **** 0.06
36618 H 135.26859525684557 20.72326240263493 55.49902707138432 H 0.0 **** 0.06
36619 H 135.8817758459703 20.63101133729782 57.16828615060393 H 0.0 **** 0.06
36620 H 136.9308981601123 20.165918032555027 55.80688388079753 H 0.0 **** 0.06
36621 C 152.54758260510602 120.80279768061297 24.53722869950888 C 0.0 **** -0.24
36622 H 153.3772320436102 120.30603753969854 24.033812998360865 H 0.0 **** 0.06
36623 H 151.6070802140277 120.34945970692615 24.22117780082001 H 0.0 **** 0.06
36624 H 152.54649614909147 121.8607599585331 24.27642072246892 H 0.0 **** 0.06
36625 H 152.65994425629322 120.69395077745895 25.615539587697477 H 0.0 **** 0.06
36626 C 47.11202916791143 113.35215682150368 68.6130354179183 C 0.0 **** -0.24
36627 H 47.58026633246038 114.32231502669626 68.44618756830059 H 0.0 **** 0.06
36628 H 46.323949434581095 113.1984496244518 67.87540838771405 H 0.0 **** 0.06
36629 H 46.684317739924495 113.32325862207 69.61472548325673 H 0.0 **** 0.06
36630 H 47.86050795226299 112.56604474140903 68.51406830872138 H 0.0 **** 0.06
36631 C 49.259041081460424 116.6343518179417 121.0013979132359 C 0.0 **** -0.24
36632 H 49.783662584057694 115.76151047001599 120.6122662432644 H 0.0 **** 0.06
36633 H 49.45611933941828 117.49230173894114 120.35773238703493 H 0.0 **** 0.06
36634 H 49.6084130349125 116.84839983658372 122.01151912983258 H 0.0 **** 0.06
36635 H 48.18740941356306 116.43450616900662 121.02297311687926 H 0.0 **** 0.06
36636 C 70.59548440003661 119.49109383842358 27.452901380987925 C 0.0 **** -0.24
36637 H 70.27145093890323 119.94287773634008 26.515651790406054 H 0.0 **** 0.06
36638 H 71.01811565828046 118.50558281709078 27.253539716990332 H 0.0 **** 0.06
36639 H 69.74134662106096 119.39139167142332 28.122344660657916 H 0.0 **** 0.06
36640 H 71.35154638401306 120.12285454314184 27.91835369184045 H 0.0 **** 0.06
36641 C 7.499951805334227 80.297491109004 136.19693951909662 C 0.0 **** -0.24
36642 H 7.582083987919091 80.00353262251565 137.2436376204936 H 0.0 **** 0.06
36643 H 7.239788585163986 79.42663104845053 135.59446207918694 H 0.0 **** 0.06
36644 H 8.452914607936442 80.70285275739957 135.8581947910291 H 0.0 **** 0.06
36645 H 6.723701418504767 81.0558693488851 136.09322367072457 H 0.0 **** 0.06
36646 C 83.08505806168083 58.24418371369208 65.65170883370719 C 0.0 **** -0.24
36647 H 83.81889206292936 57.441239516797324 65.72581333856601 H 0.0 **** 0.06
36648 H 83.00954959920035 58.756026247973665 66.61171295372077 H 0.0 **** 0.06
36649 H 82.11487002000457 57.82560150024325 65.38616176000767 H 0.0 **** 0.06
36650 H 83.39779953851631 58.95308571447515 64.88529582703556 H 0.0 **** 0.06
36651 C 80.59284048309512 168.89275324578546 83.05996973320333 C 0.0 **** -0.24
36652 H 81.36804702065317 168.21183477140306 83.41214448372727 H 0.0 **** 0.06
36653 H 80.63185327833645 168.95444768984515 81.97238434148039 H 0.0 **** 0.06
36654 H 80.7569203539997 169.88142772767353 83.48784790796316 H 0.0 **** 0.06
36655 H 79.61595870162768 168.52038513646832 83.36819393275368 H 0.0 **** 0.06
36656 C 107.3536121314352 18.368875195820834 50.79115078607687 C 0.0 **** -0.24
36657 H 107.71979624869408 17.352863447690083 50.93637987084024 H 0.0 **** 0.06
36658 H 107.65589417922067 18.988433595307754 51.63529066178373 H 0.0 **** 0.06
36659 H 106.2654171341058 18.35538622051166 50.72041242793267 H 0.0 **** 0.06
36660 H 107.77207022680423 18.777294774759582 49.87108260143911 H 0.0 **** 0.06
36661 C 23.458328129364077 102.21261950279828 171.63476797794098 C 0.0 **** -0.24
36662 H 22.47757776413573 101.86399007626022 171.3146533622217 H 0.0 **** 0.06
36663 H 23.768234835782238 101.66067570784051 172.52253995636423 H 0.0 **** 0.06
36664 H 23.40802366791914 103.27622490457856 171.8668287082252 H 0.0 **** 0.06
36665 H 24.18108934669391 102.05018664820298 170.83524688835752 H 0.0 **** 0.06
36666 C 165.71030793024437 32.10733023335996 53.7525440313666 C 0.0 **** -0.24
36667 H 165.37574614166053 31.70240648990338 52.7971737516952 H 0.0 **** 0.06
36668 H 166.22011790251833 33.05696852856005 53.58484151469003 H 0.0 **** 0.06
36669 H 166.39593538680822 31.40470276808594 54.22439652286988 H 0.0 **** 0.06
36670 H 164.8492947194481 32.267094329348254 54.40140754830384 H 0.0 **** 0.06
36671 C 171.9749314709168 67.42041334965802 59.328066556191914 C 0.0 **** -0.24
36672 H 171.12951126136016 67.64367249188706 59.97892077349428 H 0.0 **** 0.06
36673 H 172.83027955041547 67.12339794094407 59.93342318200979 H 0.0 **** 0.06
36674 H 172.2296115789475 68.30806570209896 58.747661893692 H 0.0 **** 0.06
36675 H 171.7073796739796 66.60871847235671 58.65156108921525 H 0.0 **** 0.06
36676 C 80.46339851118407 135.65524963653536 11.174510143246039 C 0.0 **** -0.24
36677 H 81.25688766766619 136.310438586057 11.534313688357827 H 0.0 **** 0.06
36678 H 80.79166575590897 134.61764237582585 11.238556879395503 H 0.0 **** 0.06
36679 H 80.23140942930475 135.90087745195382 10.13810325766923 H 0.0 **** 0.06
36680 H 79.57302760606649 135.79313283922633 11.788267480493516 H 0.0 **** 0.06
36681 C 112.12626718286674 139.31963450395875 151.38087875329043 C 0.0 **** -0.24
36682 H 111.3663892015835 140.07325245010307 151.17608713419537 H 0.0 **** 0.06
36683 H 112.37480022890554 138.7953069353445 150.45777738808926 H 0.0 **** 0.06
36684 H 111.74398520772013 138.6078886310927 152.1113590331445 H 0.0 **** 0.06
36685 H 113.02015848673784 139.80335320339856 151.7764653823948 H 0.0 **** 0.06
36686 C 53.080261750051804 155.30991353883246 133.89982533079785 C 0.0 **** -0.24
36687 H 53.44175571249855 155.18813916439194 134.92054874180164 H 0.0 **** 0.06
36688 H 52.26237328302143 156.02980847501044 133.88729934637493 H 0.0 **** 0.06
36689 H 52.725678947296146 154.3497940083206 133.52357310598583 H 0.0 **** 0.06
36690 H 53.891973098066174 155.67017075486478 133.26722622276733 H 0.0 **** 0.06
36691 C 100.64969563100195 108.01619245264459 155.01798454572975 C 0.0 **** -0.24
36692 H 101.33735629940097 108.82604625248379 155.2599737822748 H 0.0 **** 0.06
36693 H 99.79448577170254 108.051114719645 155.69251527347524 H 0.0 **** 0.06
36694 H 101.16102409247412 107.06022680807732 155.12798480505433 H 0.0 **** 0.06
36695 H 100.30688871842023 108.12814839197455 153.9887316565253 H 0.0 **** 0.06
36696 C 165.4195676965691 147.8971079424208 102.83410814372814 C 0.0 **** -0.24
36697 H 164.72339197404523 148.41932851829853 103.48990933334045 H 0.0 **** 0.06
36698 H 165.02419775627882 147.88700597148434 101.81849614128669 H 0.0 **** 0.06
36699 H 165.5486187615993 146.87279873619886 103.18396191620297 H 0.0 **** 0.06
36700 H 166.38175688944534 148.40786875353257 102.84499389916795 H 0.0 **** 0.06
36701 C 110.24755950290591 32.04957354245454 165.2138055099432 C 0.0 **** -0.24
36702 H 110.26409994577375 32.49204138798747 166.21044127030962 H 0.0 **** 0.06
36703 H 110.0139947979329 30.98716795385303 165.29259711487663 H 0.0 **** 0.06
36704 H 111.22408067230066 32.17368253620546 164.74556886858073 H 0.0 **** 0.06
36705 H 109.48898006410667 32.54551870222194 164.60979990883368 H 0.0 **** 0.06
36706 C 81.00662572607786 20.21567160136442 121.21831411111415 C 0.0 **** -0.24
36707 H 82.0260175335686 20.55694438024841 121.39957753507451 H 0.0 **** 0.06
36708 H 81.0153276847045 19.43281870934254 120.45938339428406 H 0.0 **** 0.06
36709 H 80.4008303238547 21.052657076438805 120.8699673702867 H 0.0 **** 0.06
36710 H 80.58552308053898 19.821408218679863 122.14252085164387 H 0.0 **** 0.06
36711 C 27.193847141382548 163.67257959607244 44.579059031775955 C 0.0 **** -0.24
36712 H 27.262838432584658 163.38429085679078 45.62797132035524 H 0.0 **** 0.06
36713 H 28.038205846477922 163.25330147070272 44.03164472433241 H 0.0 **** 0.06
36714 H 27.213375031571644 164.75930962377797 44.49946203345712 H 0.0 **** 0.06
36715 H 26.262762602829156 163.29340887569114 44.1588265853442 H 0.0 **** 0.06
36716 C 12.755976099533612 107.04138868705431 76.5536017365903 C 0.0 **** -0.24
36717 H 12.805376363044608 106.62168638234257 75.54869587858906 H 0.0 **** 0.06
36718 H 13.662586413765517 107.61267709484929 76.75455569853595 H 0.0 **** 0.06
36719 H 12.666866068969526 106.23307208368925 77.27992182943949 H 0.0 **** 0.06
36720 H 11.889038410838864 107.69671366977585 76.63138584461923 H 0.0 **** 0.06
36721 C 45.70118706768881 155.84816690212864 169.40178136785093 C 0.0 **** -0.24
36722 H 45.34925085966205 156.44746633729272 170.24223559816627 H 0.0 **** 0.06
36723 H 44.980817975474736 155.9090708291704 168.58668797603272 H 0.0 **** 0.06
36724 H 45.80888735084932 154.8104916179572 169.71605165220345 H 0.0 **** 0.06
36725 H 46.66606312874063 156.22803968395164 169.06442240572667 H 0.0 **** 0.06
36726 C 22.938982771853432 12.957188477882852 129.71661735623184 C 0.0 **** -0.24
36727 H 23.310331137316496 11.961285447427542 129.47459104379595 H 0.0 **** 0.06
36728 H 21.884533573122184 12.894847418596385 129.98694620205418 H 0.0 **** 0.06
36729 H 23.053285721126656 13.60733756335867 128.84923152058983 H 0.0 **** 0.06
36730 H 23.50652762674281 13.363374459825934 130.55329527721162 H 0.0 **** 0.06
36731 C 68.95468860880322 87.00020578364041 67.42171257510839 C 0.0 **** -0.24
36732 H 68.2178938363762 87.00956020659044 68.22546139609622 H 0.0 **** 0.06
36733 H 68.7162735268961 87.7843034417536 66.70235499721421 H 0.0 **** 0.06
36734 H 68.9359769100574 86.0309025637797 66.92397940128912 H 0.0 **** 0.06
36735 H 69.94648861210675 87.17636945144949 67.83737864685394 H 0.0 **** 0.06
36736 C 15.84827205296466 79.17268844927224 18.3376849706531 C 0.0 **** -0.24
36737 H 16.62241514572719 78.9375109242821 17.60653572533559 H 0.0 **** 0.06
36738 H 16.02337822400807 80.16984428309036 18.74236790216304 H 0.0 **** 0.06
36739 H 15.87812861919727 78.44185557376613 19.144885092079278 H 0.0 **** 0.06
36740 H 14.871592967018728 79.14235863599941 17.855094834301866 H 0.0 **** 0.06
36741 C 139.27892019696912 29.70907239967636 26.33707368335635 C 0.0 **** -0.24
36742 H 138.85816602922046 29.620762393952248 27.338965629970517 H 0.0 **** 0.06
36743 H 138.82453211404612 28.963113929452845 25.68515374135262 H 0.0 **** 0.06
36744 H 140.3564470499502 29.54738173846556 26.380076274757215 H 0.0 **** 0.06
36745 H 139.07649135966983 30.70661587481061 25.945676444661302 H 0.0 **** 0.06
36746 C 130.88066829212366 110.65417718564524 34.54156629727959 C 0.0 **** -0.24
36747 H 131.02383819160224 111.6526793373659 34.12904477534465 H 0.0 **** 0.06
36748 H 130.68490240948526 110.72768312373236 35.61138954687601 H 0.0 **** 0.06
36749 H 131.77914997977868 110.06021119781585 34.37525563405404 H 0.0 **** 0.06
36750 H 130.03375221959692 110.17636585167065 34.04860413479747 H 0.0 **** 0.06
36751 C 29.391621034485354 51.446818109524145 24.49202148619697 C 0.0 **** -0.24
36752 H 30.38451519892203 51.690448375728806 24.869254358285566 H 0.0 **** 0.06
36753 H 29.455768663484264 51.198444235459675 23.433024478458826 H 0.0 **** 0.06
36754 H 28.73201297981467 52.304094509843 24.625590066071332 H 0.0 **** 0.06
36755 H 28.993932811619118 50.59332020271023 25.041950219358334 H 0.0 **** 0.06
36756 C 68.13994712426202 49.673193065985444 101.86947919651246 C 0.0 **** -0.24
36757 H 67.32152461690318 48.957999160177465 101.95843701285705 H 0.0 **** 0.06
36758 H 69.08905758400269 49.137139138387354 101.84592661360847 H 0.0 **** 0.06
36759 H 68.12499926075601 50.349178138055265 102.72413931336936 H 0.0 **** 0.06
36760 H 68.02305062588978 50.24671141537425 100.95020117314485 H 0.0 **** 0.06
36761 C 124.45283641611488 143.27780500574133 35.995275606851465 C 0.0 **** -0.24
36762 H 125.3374170911843 142.97928829212623 36.55741346521603 H 0.0 **** 0.06
36763 H 123.71937384276163 142.47134675608976 36.01713767729365 H 0.0 **** 0.06
36764 H 124.73248216786163 143.48678021738223 34.96218082469073 H 0.0 **** 0.06
36765 H 124.02229526192497 144.17248612189758 36.443910393474994 H 0.0 **** 0.06
36766 C 89.69138367577119 18.493852551782027 47.62367880260095 C 0.0 **** -0.24
36767 H 90.35371793412885 17.721302194195346 48.01536551872459 H 0.0 **** 0.06
36768 H 88.83914500096618 18.614961999821162 48.29269295828793 H 0.0 **** 0.06
36769 H 89.33871785577 18.20237543168514 46.63493158476443 H 0.0 **** 0.06
36770 H 90.23471495251137 19.436026694481825 47.55369176743808 H 0.0 **** 0.06
36771 C 134.45825737744642 108.93549490510722 70.60968284667871 C 0.0 **** -0.24
36772 H 134.69270955515339 109.62499478938912 69.79789450813533 H 0.0 **** 0.06
36773 H 135.338653325249 108.80083665115333 71.23791553388168 H 0.0 **** 0.06
36774 H 134.15740135001016 107.97484367078059 70.19330801132796 H 0.0 **** 0.06
36775 H 133.64387561273122 109.34380253440904 71.20799831606942 H 0.0 **** 0.06
36776 C 46.7010000211596 86.0101999669623 66.44936700108912 C 0.0 **** -0.24
36777 H 47.49692000808932 86.75546630305341 66.42771790470671 H 0.0 **** 0.06
36778 H 46.732217009443545 85.47421038987925 67.39879572501732 H 0.0 **** 0.06
36779 H 46.84095659178543 85.30581734314961 65.62917710085166 H 0.0 **** 0.06
36780 H 45.73689713866294 86.50607067548127 66.34299022642342 H 0.0 **** 0.06
36781 C 24.402693699111225 67.47884043428938 110.90226305868143 C 0.0 **** -0.24
36782 H 23.479348255093946 67.83647369024001 111.35751883267974 H 0.0 **** 0.06
36783 H 24.201866499346664 67.15197205982045 109.88176871766206 H 0.0 **** 0.06
36784 H 24.79410614266631 66.64354259592365 111.48165408714769 H 0.0 **** 0.06
36785 H 25.135432104336957 68.28628381863274 110.88687398238062 H 0.0 **** 0.06
36786 C 132.1965770943534 105.01592260667417 59.38665067328189 C 0.0 **** -0.24
36787 H 133.2158240633792 104.66536033838946 59.22587479396282 H 0.0 **** 0.06
36788 H 132.2198603779398 105.98750203190065 59.88159060147015 H 0.0 **** 0.06
36789 H 131.66189187256143 104.30154170028123 60.01189206085738 H 0.0 **** 0.06
36790 H 131.68912339111668 105.10897395750504 58.42592261607231 H 0.0 **** 0.06
36791 C 51.322764740289486 6.357477403964253 61.059904980074194 C 0.0 **** -0.24
36792 H 51.12317486739279 6.152700118169037 62.11171975957062 H 0.0 **** 0.06
36793 H 52.391631243640816 6.265284487885879 60.867871018843985 H 0.0 **** 0.06
36794 H 50.99605505691669 7.369742451790501 60.818735989345214 H 0.0 **** 0.06
36795 H 50.77871902783022 5.64352230895895 60.441157387722185 H 0.0 **** 0.06
36796 C 154.95894729536187 33.67192759466697 119.44220006387667 C 0.0 **** -0.24
36797 H 154.78941705094758 34.571466737991244 120.03355528468711 H 0.0 **** 0.06
36798 H 154.26230735445563 32.89419931236179 119.75689154340574 H 0.0 **** 0.06
36799 H 155.98155237942376 33.32642383707898 119.59133476516956 H 0.0 **** 0.06
36800 H 154.80081843004703 33.8956480412792 118.38737894274425 H 0.0 **** 0.06
36801 C 127.28557818233145 138.01092791240944 168.19570317049815 C 0.0 **** -0.24
36802 H 127.1801300215422 138.74676617256947 168.99370439923263 H 0.0 **** 0.06
36803 H 127.49930533563682 137.034084610097 168.62892024895783 H 0.0 **** 0.06
36804 H 128.10357783157855 138.304078990712 167.53768629944102 H 0.0 **** 0.06
36805 H 126.3593049769807 137.96056557861425 167.62385025800333 H 0.0 **** 0.06
36806 C 131.96605237206057 146.36129347985576 48.6678776394661 C 0.0 **** -0.24
36807 H 132.50757776205225 147.16282228214678 48.16596529405943 H 0.0 **** 0.06
36808 H 131.17938545776119 145.98839559738903 48.0115709008718 H 0.0 **** 0.06
36809 H 131.52261781391067 146.74333629287162 49.587594594268225 H 0.0 **** 0.06
36810 H 132.6553432532308 145.55100507900946 48.90696338667976 H 0.0 **** 0.06
36811 C 120.55637921097684 80.50829752909502 63.90568074628489 C 0.0 **** -0.24
36812 H 120.1407579627047 81.42114247186588 64.33145210661202 H 0.0 **** 0.06
36813 H 120.91347725483092 80.70877324922182 62.89480305878109 H 0.0 **** 0.06
36814 H 119.78464871847473 79.73865352833373 63.872735803311684 H 0.0 **** 0.06
36815 H 121.38677490993535 80.16411203062039 64.52288292931651 H 0.0 **** 0.06
36816 C 170.6289154960073 11.779200704571252 98.9702141052332 C 0.0 **** -0.24
36817 H 169.92100729536722 11.00623200846698 99.27183240843502 H 0.0 **** 0.06
36818 H 170.16110085691466 12.75875244682365 99.07318525214225 H 0.0 **** 0.06
36819 H 170.91751773575095 11.62122099129354 97.93120047013181 H 0.0 **** 0.06
36820 H 171.51373119668605 11.729788691469935 99.60482171062907 H 0.0 **** 0.06
36821 C 27.5606902445181 98.5762428132164 147.71397385993407 C 0.0 **** -0.24
36822 H 28.075628157482157 98.62475755276489 148.67346771191768 H 0.0 **** 0.06
36823 H 27.380511996318432 97.53398648907796 147.45089072643367 H 0.0 **** 0.06
36824 H 28.177129921178278 99.04469414233125 146.94729880615756 H 0.0 **** 0.06
36825 H 26.608460917515117 99.10313598042063 147.78676209756577 H 0.0 **** 0.06
36826 C 151.62355336093296 75.97801539310635 6.987356788105984 C 0.0 **** -0.24
36827 H 150.83500293314245 76.44893763189042 7.572898935529679 H 0.0 **** 0.06
36828 H 152.5939374330259 76.23300038143452 7.413817343548629 H 0.0 **** 0.06
36829 H 151.57402903054896 76.334748253573 5.958180799922104 H 0.0 **** 0.06
36830 H 151.49178090276806 74.8958973308079 7.002968228584109 H 0.0 **** 0.06
36831 C 117.29348257471634 52.49522099693729 12.018510687852938 C 0.0 **** -0.24
36832 H 118.0441198251329 53.2846198300893 11.989938558952389 H 0.0 **** 0.06
36833 H 117.63836747276801 51.68876523040336 12.665094532964446 H 0.0 **** 0.06
36834 H 117.13379787877139 52.110057268352676 11.010743888162295 H 0.0 **** 0.06
36835 H 116.35764075581653 52.89746495922597 12.40602979778879 H 0.0 **** 0.06
36836 C 139.26006558405345 35.795011868791846 155.6640281925769 C 0.0 **** -0.24
36837 H 139.35785311304295 36.713227884011644 156.24227995817478 H 0.0 **** 0.06
36838 H 138.45258383163937 35.18940214276182 156.07787758424558 H 0.0 **** 0.06
36839 H 140.19431224890957 35.23506857172487 155.7100810825565 H 0.0 **** 0.06
36840 H 139.03541084016695 36.040961429277615 154.6261282709035 H 0.0 **** 0.06
36841 C 20.551015242886194 79.16713304043635 142.2013725080707 C 0.0 **** -0.24
36842 H 21.31871700257659 79.81890077140683 141.78431133967473 H 0.0 **** 0.06
36843 H 19.71283026760119 79.10404333498478 141.5070549758852 H 0.0 **** 0.06
36844 H 20.206480320921116 79.57428943593658 143.15189107094113 H 0.0 **** 0.06
36845 H 20.96706044394233 78.17251772565919 142.3606645066921 H 0.0 **** 0.06
36846 C 164.4458451459038 162.68830053927874 18.531424455076262 C 0.0 **** -0.24
36847 H 165.46491447880953 162.9720790457086 18.79591389484591 H 0.0 **** 0.06
36848 H 164.3876451660854 162.4980306056103 17.459794716643444 H 0.0 **** 0.06
36849 H 163.76326304658136 163.49546359292032 18.795173647648255 H 0.0 **** 0.06
36850 H 164.16815520370847 161.78553686774407 19.077110522033365 H 0.0 **** 0.06
36851 C 150.79743531493807 155.56526371567136 53.72968382537448 C 0.0 **** -0.24
36852 H 151.57764186265982 155.9406588781307 54.39054565046462 H 0.0 **** 0.06
36853 H 151.25254325818517 155.00342617377393 52.91334654707839 H 0.0 **** 0.06
36854 H 150.23141082283323 156.40318668098897 53.32405402653126 H 0.0 **** 0.06
36855 H 150.1279920888957 154.91312442610965 54.291525731224795 H 0.0 **** 0.06
36856 C 45.51322108880032 73.53614812356236 132.22083526844173 C 0.0 **** -0.24
36857 H 44.745135452840344 73.93006742549368 131.55508589267427 H 0.0 **** 0.06
36858 H 45.20889744644653 73.6907630419155 133.25615045762282 H 0.0 **** 0.06
36859 H 46.453944904238384 74.05408572869294 132.03677686133838 H 0.0 **** 0.06
36860 H 45.64208463313443 72.47024132201605 132.03448064600823 H 0.0 **** 0.06
36861 C 162.10961118528235 129.17459645930293 2.632894809401577 C 0.0 **** -0.24
36862 H 161.6285266029184 128.89078863928052 3.5685859519779513 H 0.0 **** 0.06
36863 H 162.37386190027652 130.23116723090737 2.6655433168230473 H 0.0 **** 0.06
36864 H 161.42512558115078 128.99586730226662 1.8045485715082918 H 0.0 **** 0.06
36865 H 163.01163241863054 128.57850475458866 2.4940295389726117 H 0.0 **** 0.06
36866 C 59.6927012258694 51.866636811972484 111.72014323130117 C 0.0 **** -0.24
36867 H 60.342879674992744 52.695783168396574 111.43906758288136 H 0.0 **** 0.06
36868 H 59.91422828584501 51.563331087062025 112.74358770720491 H 0.0 **** 0.06
36869 H 59.86361872377525 51.02710362888949 111.04670547402844 H 0.0 **** 0.06
36870 H 58.652319427321586 52.18255719527288 111.65133060833409 H 0.0 **** 0.06
36871 C 58.553706569778655 40.81165959103947 92.44109844373128 C 0.0 **** -0.24
36872 H 59.26698130881596 41.44900466995233 91.91773661507523 H 0.0 **** 0.06
36873 H 57.5846310953188 40.8675008954182 91.94407360445962 H 0.0 **** 0.06
36874 H 58.453721158465726 41.14961985976089 93.47187917734175 H 0.0 **** 0.06
36875 H 58.91057780459073 39.78214200168463 92.42784621886756 H 0.0 **** 0.06
36876 C 39.34081506116246 157.03412204566928 52.94002723760461 C 0.0 **** -0.24
36877 H 39.805555248249945 157.97795613892077 53.224196083077004 H 0.0 **** 0.06
36878 H 39.72213203203883 156.23511160828093 53.5756701145195 H 0.0 **** 0.06
36879 H 39.576233235963755 156.81344550524642 51.898824886549775 H 0.0 **** 0.06
36880 H 38.26008472242695 157.10983842000144 53.06022354440715 H 0.0 **** 0.06
36881 C 58.87551664226818 118.61783843732823 71.45230480288974 C 0.0 **** -0.24
36882 H 58.35770112182239 119.48480273928422 71.86400761226444 H 0.0 **** 0.06
36883 H 59.79809810663966 118.94131656781454 70.96915518097418 H 0.0 **** 0.06
36884 H 58.23460754504363 118.12735168617516 70.71943341543788 H 0.0 **** 0.06
36885 H 59.11005176777347 117.9192154122415 72.2553429866118 H 0.0 **** 0.06
36886 C 88.2103769049014 44.30367482568532 17.2256770390169 C 0.0 **** -0.24
36887 H 88.99442239725074 44.82944028950794 17.771663815667928 H 0.0 **** 0.06
36888 H 88.32215646636924 43.22929913296937 17.37548163423778 H 0.0 **** 0.06
36889 H 88.29045525159874 44.53352838625932 16.163425670125008 H 0.0 **** 0.06
36890 H 87.23562262535572 44.62256838050493 17.594717928622863 H 0.0 **** 0.06
36891 C 131.63192341935465 29.693833528178118 149.74307700172608 C 0.0 **** -0.24
36892 H 131.02154651770908 29.51619429829543 148.85713876906382 H 0.0 **** 0.06
36893 H 131.1629946486124 30.460961134450713 150.35961592163582 H 0.0 **** 0.06
36894 H 132.62443302041916 30.027360421663275 149.43931278115087 H 0.0 **** 0.06
36895 H 131.71887206716792 28.769249219634446 150.3150097020845 H 0.0 **** 0.06
36896 C 30.77996703086825 119.8950376369715 148.30096308518208 C 0.0 **** -0.24
36897 H 30.23363051669702 120.45949309756537 149.05679616131766 H 0.0 **** 0.06
36898 H 30.087600972414975 119.55179049043213 147.53275881491453 H 0.0 **** 0.06
36899 H 31.260996421422306 119.03547641566689 148.76831352392944 H 0.0 **** 0.06
36900 H 31.537734601603347 120.5342949372114 147.84825833648722 H 0.0 **** 0.06
36901 C 45.28677487240574 107.90422168124624 94.15962067269655 C 0.0 **** -0.24
36902 H 45.680888231624635 108.09524961742596 93.16099151233325 H 0.0 **** 0.06
36903 H 44.727656513721456 106.9688363293777 94.15677909589886 H 0.0 **** 0.06
36904 H 44.62733684182879 108.721225627363 94.451168610394 H 0.0 **** 0.06
36905 H 46.111936907034405 107.83363331510364 94.86774146893194 H 0.0 **** 0.06
36906 C 115.6054053670697 69.89096646907664 25.171532667142962 C 0.0 **** -0.24
36907 H 114.52137357225462 69.97205724618777 25.243090356646647 H 0.0 **** 0.06
36908 H 115.87002649982716 69.366362946164 24.2532413213547 H 0.0 **** 0.06
36909 H 115.98565828347932 69.33764785940313 26.029836460821123 H 0.0 **** 0.06
36910 H 116.04350355906647 70.88879567163721 25.158264947081634 H 0.0 **** 0.06
36911 C 155.31830170329607 21.03404005386622 123.854321618335 C 0.0 **** -0.24
36912 H 155.55858696913202 21.97866103665288 123.36556257947493 H 0.0 **** 0.06
36913 H 156.07514363021303 20.291527909811833 123.60225974793701 H 0.0 **** 0.06
36914 H 154.3418062725341 20.688338535476475 123.51440496282504 H 0.0 **** 0.06
36915 H 155.29597810529836 21.179763596693647 124.93379531425552 H 0.0 **** 0.06
36916 C 85.69239763472225 15.339542975789897 4.741906029546172 C 0.0 **** -0.24
36917 H 84.8628140881468 15.615866920424281 4.091452042418261 H 0.0 **** 0.06
36918 H 85.47297332740483 15.6543420225577 5.763096400453136 H 0.0 **** 0.06
36919 H 86.6033685229256 15.829975641720836 4.398361222006194 H 0.0 **** 0.06
36920 H 85.82997067622014 14.258836840031051 4.716964621085509 H 0.0 **** 0.06
36921 C 138.19503114505878 118.67552001741049 148.42731944368865 C 0.0 **** -0.24
36922 H 138.79576546174545 117.96541042435967 148.995859538359 H 0.0 **** 0.06
36923 H 137.18602796590045 118.70891297632829 148.84048373325192 H 0.0 **** 0.06
36924 H 138.1513911139159 118.36159367042913 147.38455725933258 H 0.0 **** 0.06
36925 H 138.6466333067864 119.6655280891791 148.4904992582625 H 0.0 **** 0.06
36926 C 126.3445476926652 160.93134883578682 16.71469647986151 C 0.0 **** -0.24
36927 H 125.95947128146128 161.51500716729737 17.551410481508263 H 0.0 **** 0.06
36928 H 127.42943595910387 160.85279328231672 16.795217919543475 H 0.0 **** 0.06
36929 H 126.0839434623366 161.4239904510869 15.777916430524805 H 0.0 **** 0.06
36930 H 125.9046246841618 159.93394731782834 16.734849931620445 H 0.0 **** 0.06
36931 C 82.66311210271914 46.63503821856993 120.27316959680931 C 0.0 **** -0.24
36932 H 83.11069482250285 45.67452740435772 120.52953629634479 H 0.0 **** 0.06
36933 H 83.42078998104722 47.28177946885482 119.82981398833752 H 0.0 **** 0.06
36934 H 82.26737973193416 47.10372436367901 121.17443725168846 H 0.0 **** 0.06
36935 H 81.8548698920287 46.47995421125526 119.55945493026272 H 0.0 **** 0.06
36936 C 137.48494647137804 75.67021047556307 62.12470196783437 C 0.0 **** -0.24
36937 H 136.5074199733612 75.87536770543466 61.687896918269416 H 0.0 **** 0.06
36938 H 138.12036823595963 76.54958229082115 62.02498463821007 H 0.0 **** 0.06
36939 H 137.94479520646368 74.82901180417468 61.60546971036763 H 0.0 **** 0.06
36940 H 137.3654583278646 75.42357026008199 63.18039909043131 H 0.0 **** 0.06
36941 C 114.15565985636849 33.45700058425575 166.6129475050235 C 0.0 **** -0.24
36942 H 113.19810078718811 33.70398951809801 166.15534040394968 H 0.0 **** 0.06
36943 H 113.9961602638628 32.75921126054874 167.43575620695344 H 0.0 **** 0.06
36944 H 114.62185410414287 34.366231591393216 166.9933645160153 H 0.0 **** 0.06
36945 H 114.80664601702415 32.99903904301533 165.86820363504503 H 0.0 **** 0.06
36946 C 145.80303265971543 170.63545511238502 165.11001221503346 C 0.0 **** -0.24
36947 H 145.90295099959698 169.81820917676237 164.39585145901842 H 0.0 **** 0.06
36948 H 144.74613045217552 170.82436299707283 165.29924681015032 H 0.0 **** 0.06
36949 H 146.2644309003001 171.53435164579804 164.69949070775846 H 0.0 **** 0.06
36950 H 146.29775194016713 170.3661535801227 166.04269044300995 H 0.0 **** 0.06
36951 C 2.820339404680567 138.34632620310276 124.33020252470808 C 0.0 **** -0.24
36952 H 2.1201438023191344 138.09372198053094 125.12518953963368 H 0.0 **** 0.06
36953 H 2.404060537953953 139.14835166909518 123.72002692470735 H 0.0 **** 0.06
36954 H 2.9946724120541504 137.46892022999054 123.70664100191163 H 0.0 **** 0.06
36955 H 3.7641741786554093 138.67419194463778 124.76647901442092 H 0.0 **** 0.06
36956 C 26.903003799243294 145.77758606879547 3.6424006007815137 C 0.0 **** -0.24
36957 H 26.696425185373442 146.83512418416066 3.479334407834898 H 0.0 **** 0.06
36958 H 27.920331790177215 145.55244243755106 3.322364214942752 H 0.0 **** 0.06
36959 H 26.199293779844083 145.17701053316085 3.066781459842474 H 0.0 **** 0.06
36960 H 26.795760283655426 145.5459561743601 4.702508911279267 H 0.0 **** 0.06
36961 C 134.6589688423905 149.326889594153 117.65134384602314 C 0.0 **** -0.24
36962 H 135.55388269844286 149.04172527538935 118.20378268095169 H 0.0 **** 0.06
36963 H 134.61262279584466 148.76196814856596 116.71921936602007 H 0.0 **** 0.06
36964 H 134.6942679247448 150.39286135136996 117.42834978934036 H 0.0 **** 0.06
36965 H 133.77670710705863 149.11007190723993 118.25242492765273 H 0.0 **** 0.06
36966 C 37.596933075973425 47.49024913697036 84.30466569962955 C 0.0 **** -0.24
36967 H 36.57114829679142 47.12754153560029 84.36228462045254 H 0.0 **** 0.06
36968 H 37.59364141067397 48.55811451108548 84.08602697008563 H 0.0 **** 0.06
36969 H 38.12630091108662 46.958560953426854 83.51367671793798 H 0.0 **** 0.06
36970 H 38.09763624773825 47.31491131913272 85.2573960903909 H 0.0 **** 0.06
36971 C 92.82516321393777 77.89150485862616 27.378356965894547 C 0.0 **** -0.24
36972 H 92.94815174587993 78.76127296011265 28.02315417095862 H 0.0 **** 0.06
36973 H 92.54308524986914 78.21892362596007 26.376786095393975 H 0.0 **** 0.06
36974 H 92.04532087082205 77.24713261656109 27.782946250850344 H 0.0 **** 0.06
36975 H 93.76365883850897 77.33968006544906 27.329188539709627 H 0.0 **** 0.06
36976 C 49.377419241651864 98.96716866637314 33.60429029354842 C 0.0 **** -0.24
36977 H 50.36469968733502 98.7786188619304 33.182261283115054 H 0.0 **** 0.06
36978 H 48.709660914811025 98.14424194555164 33.34841214376212 H 0.0 **** 0.06
36979 H 48.980941610811485 99.89741952566723 33.19791731116953 H 0.0 **** 0.06
36980 H 49.45681547230447 99.04818781332673 34.68859068301944 H 0.0 **** 0.06
36981 C 166.27462580578566 143.43437538451724 52.20492459104766 C 0.0 **** -0.24
36982 H 165.31077320217375 143.62983923550635 52.6755860875581 H 0.0 **** 0.06
36983 H 166.92985930102648 144.29337605664358 52.35036222151821 H 0.0 **** 0.06
36984 H 166.12948523993575 143.26262302885107 51.13884040042758 H 0.0 **** 0.06
36985 H 166.72633286317435 142.5510621833729 52.6567605318009 H 0.0 **** 0.06
36986 C 171.36367339876836 79.63163721545634 27.468152423131613 C 0.0 **** -0.24
36987 H 171.23744407982153 80.70997881863941 27.375720240229896 H 0.0 **** 0.06
36988 H 172.29521507992337 79.331671812849 26.987227205801247 H 0.0 **** 0.06
36989 H 170.52678081594252 79.12605885123769 26.985779617455364 H 0.0 **** 0.06
36990 H 171.39406933449186 79.35819663356156 28.52279431324999 H 0.0 **** 0.06
36991 C 161.72597623203228 156.09181787249423 94.34680973800772 C 0.0 **** -0.24
36992 H 160.8200692104504 155.67791425847548 93.90434003046582 H 0.0 **** 0.06
36993 H 162.283044955 155.29733856780132 94.84249434826671 H 0.0 **** 0.06
36994 H 161.45795062379105 156.85712027989047 95.07496334354971 H 0.0 **** 0.06
36995 H 162.3422669825866 156.53399343312236 93.56408011259575 H 0.0 **** 0.06
36996 C 56.982361671075495 88.66919754793636 171.5810865213923 C 0.0 **** -0.24
36997 H 56.30521161534601 87.8591566507267 171.85295734757264 H 0.0 **** 0.06
36998 H 57.555582755753505 88.38210002665808 170.69880322024278 H 0.0 **** 0.06
36999 H 57.66213468988171 88.86751390062226 172.4085443127302 H 0.0 **** 0.06
37000 H 56.40365347460336 89.5666527218932 171.36140895624175 H 0.0 **** 0.06
37001 C 55.93422675767481 80.67627340906711 152.46593765535036 C 0.0 **** -0.24
37002 H 56.58296411658439 81.45937213074623 152.85993822749367 H 0.0 **** 0.06
37003 H 55.50076262597453 81.00575681726332 151.52089916108017 H 0.0 **** 0.06
37004 H 55.13732551969356 80.47215237058504 153.18025003214146 H 0.0 **** 0.06
37005 H 56.51728065753062 79.76966850570506 152.30194099994918 H 0.0 **** 0.06
37006 C 86.71276472980107 2.9175223987561267 164.28157807577105 C 0.0 **** -0.24
37007 H 87.23365465439389 2.198860839659922 163.64930090535813 H 0.0 **** 0.06
37008 H 87.03084695296802 3.9276836276140656 164.02134700517246 H 0.0 **** 0.06
37009 H 86.94975689491777 2.7205912827053993 165.3274480741265 H 0.0 **** 0.06
37010 H 85.63750892487602 2.8235540177783705 164.12858758262604 H 0.0 **** 0.06
37011 C 40.87315956087815 163.864210183698 61.28179916190392 C 0.0 **** -0.24
37012 H 41.33288933603785 163.54248756822886 62.21651264203547 H 0.0 **** 0.06
37013 H 41.650998056547735 164.1520169150432 60.57501933371633 H 0.0 **** 0.06
37014 H 40.22243903253516 164.71780556069712 61.47379117814745 H 0.0 **** 0.06
37015 H 40.28678358546995 163.0464418990398 60.864137333455275 H 0.0 **** 0.06
37016 C 70.47215753473803 14.954305692538384 20.92364344811071 C 0.0 **** -0.24
37017 H 69.40802617454541 14.92662305988079 21.15850364199693 H 0.0 **** 0.06
37018 H 71.03846858270796 14.5381601972934 21.757459937272415 H 0.0 **** 0.06
37019 H 70.78012744087935 15.986198137634233 20.75436347502034 H 0.0 **** 0.06
37020 H 70.66175439579705 14.366129617438027 20.026465603798414 H 0.0 **** 0.06
37021 C 58.88714903756892 129.56683533328712 61.7190516062596 C 0.0 **** -0.24
37022 H 58.968405290635246 129.75183051254905 62.7897202588324 H 0.0 **** 0.06
37023 H 57.95078203725737 129.04952059011165 61.5091933407175 H 0.0 **** 0.06
37024 H 59.72504085846242 128.94894178550732 61.39281839822945 H 0.0 **** 0.06
37025 H 58.90648352009521 130.51635675474716 61.18425965679381 H 0.0 **** 0.06
37026 C 37.43451352348052 141.13842724180103 42.84244855837193 C 0.0 **** -0.24
37027 H 38.36450705118121 141.53224517578747 43.2519148518507 H 0.0 **** 0.06
37028 H 36.89785112129569 141.93588967165425 42.3269445636098 H 0.0 **** 0.06
37029 H 36.81707742313242 140.74957408401963 43.65294476638576 H 0.0 **** 0.06
37030 H 37.65764643936309 140.33558794755035 42.13893097702851 H 0.0 **** 0.06
37031 C 161.19043659096383 100.01867937461398 171.7029429478135 C 0.0 **** -0.24
37032 H 160.19414750611682 99.98213800412083 171.26227076450496 H 0.0 **** 0.06
37033 H 161.39129140582745 101.02702378668326 172.06345653452956 H 0.0 **** 0.06
37034 H 161.93073092371574 99.74812373880619 170.94939722206612 H 0.0 **** 0.06
37035 H 161.24543220698854 99.31718214724052 172.53526277875983 H 0.0 **** 0.06
37036 C 56.9085413629595 3.0483114307815526 42.09216419236088 C 0.0 **** -0.24
37037 H 57.004540630077074 2.0953070209739337 42.61153101332407 H 0.0 **** 0.06
37038 H 57.6705920565048 3.116413820577037 41.31480711030375 H 0.0 **** 0.06
37039 H 57.03969652069458 3.864435094070899 42.80264197107134 H 0.0 **** 0.06
37040 H 55.91966965389281 3.116471290398607 41.638449338029886 H 0.0 **** 0.06
37041 C 148.84472386634246 131.16831237484 152.29852185318447 C 0.0 **** -0.24
37042 H 148.01640250484832 131.85682167173792 152.13339815308635 H 0.0 **** 0.06
37043 H 149.7892209576442 131.69270201815587 152.14761135034888 H 0.0 **** 0.06
37044 H 148.77310564419201 130.33818842170433 151.59512135348666 H 0.0 **** 0.06
37045 H 148.79989081022632 130.78462954232182 153.31827265332515 H 0.0 **** 0.06
37046 C 73.09956138074143 122.8855828557052 148.39048942949597 C 0.0 **** -0.24
37047 H 73.52497881256531 122.33823279987615 149.2313967363866 H 0.0 **** 0.06
37048 H 72.18958506936404 123.39364868265915 148.71130314701912 H 0.0 **** 0.06
37049 H 72.86389154476831 122.19009976053928 147.5858422158471 H 0.0 **** 0.06
37050 H 73.82031913808814 123.6224318398094 148.03459331721723 H 0.0 **** 0.06
37051 C 127.2776451279446 61.002814637135714 117.101442381921 C 0.0 **** -0.24
37052 H 127.53956713432024 59.95270634446183 116.96641400693164 H 0.0 **** 0.06
37053 H 127.04313618754747 61.18597992496041 118.1493747176313 H 0.0 **** 0.06
37054 H 126.40913211156709 61.24165499202422 116.48658740170782 H 0.0 **** 0.06
37055 H 128.11826554710865 61.62792947661666 116.8011926221472 H 0.0 **** 0.06
37056 C 137.53025861390762 71.64349779993404 119.38162677031431 C 0.0 **** -0.24
37057 H 138.46962628039094 72.0307018573506 118.98505567689756 H 0.0 **** 0.06
37058 H 137.64283781282262 70.5840810818703 119.61304271645463 H 0.0 **** 0.06
37059 H 136.7434367398536 71.77168834973398 118.63865255101626 H 0.0 **** 0.06
37060 H 137.26691847964483 72.18809877719838 120.287415314329 H 0.0 **** 0.06
37061 C 65.7361371269973 36.271560853300315 114.64317290050408 C 0.0 **** -0.24
37062 H 65.88494773055912 36.82171433839328 115.57268392880124 H 0.0 **** 0.06
37063 H 65.72807368515342 35.20200658658284 114.85185884001876 H 0.0 **** 0.06
37064 H 66.54703661131752 36.50191088047433 113.95159492327932 H 0.0 **** 0.06
37065 H 64.78506868670341 36.562197603638936 114.19694169717295 H 0.0 **** 0.06
37066 C 31.729082003300647 163.68246674689283 19.397768608954095 C 0.0 **** -0.24
37067 H 31.2404047792499 163.86055944225978 20.355991842159938 H 0.0 **** 0.06
37068 H 32.356678827757605 164.53817436104544 19.14630106660647 H 0.0 **** 0.06
37069 H 30.973347080097582 163.54684453716024 18.624250334896317 H 0.0 **** 0.06
37070 H 32.346425206507206 162.78663113136284 19.465015214230448 H 0.0 **** 0.06
37071 C 137.51765251928967 2.598826985565033 42.37068764908412 C 0.0 **** -0.24
37072 H 136.56400207484978 2.604021558793164 41.8416403292984 H 0.0 **** 0.06
37073 H 138.30562942846507 2.268064415688336 41.69438395494933 H 0.0 **** 0.06
37074 H 137.45742752869415 1.9197093292617424 43.22028067134036 H 0.0 **** 0.06
37075 H 137.74108707270767 3.6051348929393328 42.724929910677986 H 0.0 **** 0.06
37076 C 62.138595573062275 147.74837441131746 40.1617419195602 C 0.0 **** -0.24
37077 H 62.90773499661378 148.0355570713112 40.88024655648775 H 0.0 **** 0.06
37078 H 62.541566123266875 147.81871357861044 39.151059802360976 H 0.0 **** 0.06
37079 H 61.28261533280431 148.41533658671193 40.26084514464293 H 0.0 **** 0.06
37080 H 61.82495289769122 146.72249281268657 40.35723726096796 H 0.0 **** 0.06
37081 C 19.318545657391724 98.33994447310297 143.4970058978933 C 0.0 **** -0.24
37082 H 19.43029439526893 99.37550773762692 143.17550918937457 H 0.0 **** 0.06
37083 H 18.386393872925346 97.93578481085663 143.10136689307558 H 0.0 **** 0.06
37084 H 19.300296708266323 98.29759254170213 144.58556340502753 H 0.0 **** 0.06
37085 H 20.156524224979776 97.75142010601598 143.12351804869198 H 0.0 **** 0.06
37086 C 143.63302433555344 70.44780928566841 15.931685241964942 C 0.0 **** -0.24
37087 H 144.15394632440183 70.05174173199434 16.80275351046231 H 0.0 **** 0.06
37088 H 143.05490319474342 69.65196739153356 15.461457820542478 H 0.0 **** 0.06
37089 H 144.35985142259818 70.83838255840776 15.219683781345282 H 0.0 **** 0.06
37090 H 142.96339640047023 71.24914546073812 16.2428458555097 H 0.0 **** 0.06
37091 C 14.841394027982702 92.5993352377402 50.6169600054656 C 0.0 **** -0.24
37092 H 15.595887964193778 93.3781002532902 50.72597432710988 H 0.0 **** 0.06
37093 H 15.016210037614513 91.81797685758158 51.35769658225192 H 0.0 **** 0.06
37094 H 14.903741117509327 92.17139076340288 49.61573046588734 H 0.0 **** 0.06
37095 H 13.85077580206245 93.02769625513815 50.76801145758283 H 0.0 **** 0.06
37096 C 158.8498514378927 120.51107821770336 74.85292694787682 C 0.0 **** -0.24
37097 H 159.3853418485124 120.16375243573253 73.9690921110386 H 0.0 **** 0.06
37098 H 159.5048439058316 120.44976862268297 75.72213646865691 H 0.0 **** 0.06
37099 H 157.97098091123846 119.88589564365836 75.01426065428112 H 0.0 **** 0.06
37100 H 158.53718991952064 121.545147414595 74.70425991899765 H 0.0 **** 0.06
37101 C 30.797248436509506 63.465306618924885 77.6102025401562 C 0.0 **** -0.24
37102 H 30.754588085365924 62.51521829040128 78.14162648942069 H 0.0 **** 0.06
37103 H 30.416052226392694 64.25900961967244 78.25337063981175 H 0.0 **** 0.06
37104 H 30.18961955349394 63.4041565650587 76.70783511400191 H 0.0 **** 0.06
37105 H 31.830556948198492 63.68354667730026 77.33906419339998 H 0.0 **** 0.06
37106 C 1.9159300556781034 167.69585527878496 40.68357646263874 C 0.0 **** -0.24
37107 H 1.3955868017061732 168.23105731099696 39.88979636402715 H 0.0 **** 0.06
37108 H 1.9628484976646803 166.63587665425618 40.43649120572934 H 0.0 **** 0.06
37109 H 1.3776390731411823 167.82679872998543 41.6229932243416 H 0.0 **** 0.06
37110 H 2.9267081533209875 168.09162850605586 40.7856224925913 H 0.0 **** 0.06
37111 C 120.58548615541582 152.3491532023198 20.058641324058186 C 0.0 **** -0.24
37112 H 121.24839370419414 152.05466991476965 19.244973478135563 H 0.0 **** 0.06
37113 H 120.02227573495492 153.2353365224334 19.764295676618815 H 0.0 **** 0.06
37114 H 121.17637912605886 152.57122397454452 20.94686046078857 H 0.0 **** 0.06
37115 H 119.89409834810954 151.53497392841305 20.275572628863472 H 0.0 **** 0.06
37116 C 74.11921178994433 20.527199300781092 54.03558925880726 C 0.0 **** -0.24
37117 H 74.60250059710233 21.215235970734966 54.72917678216817 H 0.0 **** 0.06
37118 H 73.2086116376783 20.133734716059053 54.48956637732363 H 0.0 **** 0.06
37119 H 74.79649862952829 19.705003721032483 53.80789844284189 H 0.0 **** 0.06
37120 H 73.86786862780605 21.05512878358377 53.11590493803659 H 0.0 **** 0.06
37121 C 91.11012662164184 20.002826043669927 168.68690897119026 C 0.0 **** -0.24
37122 H 91.73056271197953 20.174354587343714 167.80741753008033 H 0.0 **** 0.06
37123 H 91.38882284237476 20.707290285147963 169.47066641916132 H 0.0 **** 0.06
37124 H 91.26151716059927 18.983430155589303 169.04388537470734 H 0.0 **** 0.06
37125 H 90.06201934318024 20.144777977009426 168.4254229539841 H 0.0 **** 0.06
37126 C 69.71293883631967 114.65606292648113 120.79574793117007 C 0.0 **** -0.24
37127 H 68.77701490146049 114.91734905191828 121.29010422785052 H 0.0 **** 0.06
37128 H 70.29668164901645 114.0046645764171 121.44652186778455 H 0.0 **** 0.06
37129 H 70.27973953998303 115.56393240351673 120.58708987149055 H 0.0 **** 0.06
37130 H 69.49814619234621 114.13845678702592 119.86150002235809 H 0.0 **** 0.06
37131 C 160.52043777506157 95.30914934719385 169.75765659146353 C 0.0 **** -0.24
37132 H 160.34332734103242 95.86256479375129 168.83558966576146 H 0.0 **** 0.06
37133 H 160.50503857981624 95.99713038275723 170.60291166655014 H 0.0 **** 0.06
37134 H 161.49237814785943 94.81862981677784 169.70504779538962 H 0.0 **** 0.06
37135 H 159.741344204945 94.55793248704674 169.88541264807122 H 0.0 **** 0.06
37136 C 121.20581896436116 124.22575903853556 37.36310693810731 C 0.0 **** -0.24
37137 H 120.70667434086417 124.56355281974885 38.27160085962538 H 0.0 **** 0.06
37138 H 121.39120233356206 123.15372454341386 37.42786977311442 H 0.0 **** 0.06
37139 H 122.15334920495351 124.75377497414883 37.251914202823855 H 0.0 **** 0.06
37140 H 120.57036164848628 124.43407038504728 36.50238307644571 H 0.0 **** 0.06
37141 C 49.85353240782385 83.33645820154727 120.39125199372452 C 0.0 **** -0.24
37142 H 48.829816122931675 83.61488383923472 120.64004166003366 H 0.0 **** 0.06
37143 H 50.54654726992368 83.94906503978136 120.9687764306903 H 0.0 **** 0.06
37144 H 50.0249727682895 83.49755516031213 119.32660455081685 H 0.0 **** 0.06
37145 H 50.01304423768465 82.28526530594065 120.62983036014708 H 0.0 **** 0.06
37146 C 129.25418300821858 11.53923477650784 103.90866233465835 C 0.0 **** -0.24
37147 H 128.5241518854413 11.982301549531726 104.58648576009898 H 0.0 **** 0.06
37148 H 129.49686351937157 12.252692720018388 103.1204700059759 H 0.0 **** 0.06
37149 H 128.83766809732998 10.635351608271975 103.46537382674427 H 0.0 **** 0.06
37150 H 130.15908154401853 11.288799079767607 104.46257911050458 H 0.0 **** 0.06
37151 C 85.54449100060232 109.62681295029932 120.36458433484432 C 0.0 **** -0.24
37152 H 85.73428968738055 109.06026665318046 119.45206037279871 H 0.0 **** 0.06
37153 H 85.16480174937409 108.95681179807008 121.13506514221748 H 0.0 **** 0.06
37154 H 84.80692772718254 110.40408992361967 120.16272019248245 H 0.0 **** 0.06
37155 H 86.47219051728283 110.08637618572811 120.70551603357876 H 0.0 **** 0.06
37156 C 0.7979198319857801 98.73078117309103 137.40975303963833 C 0.0 **** -0.24
37157 H 0.9384201057327459 99.365904520362 138.28533069929694 H 0.0 **** 0.06
37158 H 1.754753685707982 98.29858638394563 137.11734439081405 H 0.0 **** 0.06
37159 H 0.40186189517271487 99.32859457953543 136.58882525442675 H 0.0 **** 0.06
37160 H 0.09551389648686381 97.93180231231133 137.6500838655051 H 0.0 **** 0.06
37161 C 69.07129231012809 112.57485888198664 75.89608832627475 C 0.0 **** -0.24
37162 H 68.91749403941844 113.65210734112424 75.83042217529514 H 0.0 **** 0.06
37163 H 69.48864266442166 112.21034793681616 74.95681324903089 H 0.0 **** 0.06
37164 H 68.11780463053175 112.08233189950556 76.08530139459664 H 0.0 **** 0.06
37165 H 69.76183916698685 112.3557887242759 76.70973656420142 H 0.0 **** 0.06
37166 C 54.25135541185945 129.25132303870322 50.298827378010316 C 0.0 **** -0.24
37167 H 54.40876873885604 128.6030022026015 49.4372385524606 H 0.0 **** 0.06
37168 H 54.79056747174461 128.85125260829926 51.15775589838067 H 0.0 **** 0.06
37169 H 53.18626878514375 129.29870343724457 50.528330743180476 H 0.0 **** 0.06
37170 H 54.618465965206966 130.25192503010987 50.07189200420753 H 0.0 **** 0.06
37171 C 100.21081010632221 9.882964084695686 4.535194829401121 C 0.0 **** -0.24
37172 H 100.3674790316897 9.365743051426222 3.5887126955579447 H 0.0 **** 0.06
37173 H 99.24316731822171 9.598354160892399 4.948517721154445 H 0.0 **** 0.06
37174 H 100.2329903743408 10.959905549991902 4.367456013869258 H 0.0 **** 0.06
37175 H 101.00016059723899 9.60763372709522 5.233717660620584 H 0.0 **** 0.06
37176 C 55.226688475185654 8.233256727797027 112.93188021482865 C 0.0 **** -0.24
37177 H 55.77636594685731 8.970921708596563 113.51687957371419 H 0.0 **** 0.06
37178 H 54.393008606878254 8.719385434589668 112.42462982516278 H 0.0 **** 0.06
37179 H 54.84542548098335 7.456478531949045 113.5949830412934 H 0.0 **** 0.06
37180 H 55.892778998686765 7.786832872470768 112.19325760958674 H 0.0 **** 0.06
37181 C 134.2854274146831 129.42668579937808 84.43276098323236 C 0.0 **** -0.24
37182 H 134.21330688463954 129.07619735648817 83.40369167772886 H 0.0 **** 0.06
37183 H 134.4956823170253 130.49611328302532 84.43775225800862 H 0.0 **** 0.06
37184 H 135.08953480360773 128.8951271143032 84.94162133327875 H 0.0 **** 0.06
37185 H 133.34370174621625 129.2390656790362 84.94715635672816 H 0.0 **** 0.06
37186 C 141.37225018812325 105.65562636208298 24.85841783567041 C 0.0 **** -0.24
37187 H 141.62017619582429 104.5996805946688 24.747190873254148 H 0.0 **** 0.06
37188 H 140.2943842378097 105.76436264946952 24.98358025409565 H 0.0 **** 0.06
37189 H 141.6915912539563 106.19922840153205 23.96822665270693 H 0.0 **** 0.06
37190 H 141.8829559259732 106.05881860530343 25.73247894841635 H 0.0 **** 0.06
37191 C 92.58573875057459 1.2535521670105112 12.309879830786684 C 0.0 **** -0.24
37192 H 93.54751987969217 0.8830709320305701 11.954269205275978 H 0.0 **** 0.06
37193 H 92.61697645707105 2.3409300053271735 12.373502218543535 H 0.0 **** 0.06
37194 H 92.37675624317967 0.8368477937347336 13.29546289594657 H 0.0 **** 0.06
37195 H 91.80175101446395 0.9520520097647349 11.614471965889464 H 0.0 **** 0.06
37196 C 42.32278807628296 167.784373136226 11.956813296559517 C 0.0 **** -0.24
37197 H 43.37830193088804 167.8192784872598 12.2231894468365 H 0.0 **** 0.06
37198 H 41.78469368605846 167.17673552435662 12.684693202970521 H 0.0 **** 0.06
37199 H 42.21186322725822 167.34653516482192 10.964575529708213 H 0.0 **** 0.06
37200 H 41.91521815184126 168.79614586945357 11.955425709140798 H 0.0 **** 0.06
37201 C 40.05284066262746 32.84767055328422 59.066734531267116 C 0.0 **** -0.24
37202 H 38.99995462459674 32.95495943900147 59.326625388267416 H 0.0 **** 0.06
37203 H 40.42217430470197 33.78420892786997 58.650121173142225 H 0.0 **** 0.06
37204 H 40.16442618092975 32.05250683976621 58.32934824427909 H 0.0 **** 0.06
37205 H 40.6237077823497 32.59689855985374 59.96025582229356 H 0.0 **** 0.06
37206 C 47.86788891580237 157.20015071841564 103.91292367714203 C 0.0 **** -0.24
37207 H 48.66400260686795 157.46765894885044 103.21831334374107 H 0.0 **** 0.06
37208 H 47.655075073194624 156.1347548796446 103.829125467334 H 0.0 **** 0.06
37209 H 46.97020307642212 157.77115606323767 103.67485598120754 H 0.0 **** 0.06
37210 H 48.18409563177019 157.428902788068 104.93144664356728 H 0.0 **** 0.06
37211 C 32.63447451553688 45.39208406097305 82.98829718980141 C 0.0 **** -0.24
37212 H 33.23740863402875 46.25422337638122 83.27538161315368 H 0.0 **** 0.06
37213 H 32.26943819907835 45.527808470381785 81.97020801910446 H 0.0 **** 0.06
37214 H 31.789344858269388 45.29813162502347 83.66956216160497 H 0.0 **** 0.06
37215 H 33.2447501713923 44.489794177207614 83.03908895697182 H 0.0 **** 0.06
37216 C 54.89601945168832 48.817774155526266 168.78283884747196 C 0.0 **** -0.24
37217 H 54.298175735152725 48.88757290609924 169.69168273679887 H 0.0 **** 0.06
37218 H 54.348453268939 49.26678292061591 167.9533880494293 H 0.0 **** 0.06
37219 H 55.09827795886048 47.769940884698755 168.56033238604917 H 0.0 **** 0.06
37220 H 55.838213157434566 49.34700193100953 168.92615728478572 H 0.0 **** 0.06
37221 C 124.95573027726297 30.74912766942016 116.21454419144379 C 0.0 **** -0.24
37222 H 124.17723452984478 31.033745118670936 115.50747316714867 H 0.0 **** 0.06
37223 H 125.9291857628728 31.044295437955242 115.82177884653859 H 0.0 **** 0.06
37224 H 124.93586247432981 29.669615993009288 116.36177861949469 H 0.0 **** 0.06
37225 H 124.78115081318239 31.24956097342546 117.16665851508719 H 0.0 **** 0.06
37226 C 123.12425305354597 81.09098695111675 96.43033996385296 C 0.0 **** -0.24
37227 H 123.34380815249733 81.73943874861828 95.5821725220743 H 0.0 **** 0.06
37228 H 123.98197608928788 81.06951576759297 97.10224795867342 H 0.0 **** 0.06
37229 H 122.91703045157107 80.0820268933777 96.07152437823254 H 0.0 **** 0.06
37230 H 122.25417802884931 81.47303437897978 96.96258741412845 H 0.0 **** 0.06
37231 C 89.33008949595052 58.13699794972581 106.35003019165285 C 0.0 **** -0.24
37232 H 88.29358773109442 58.47445056212601 106.33476518692964 H 0.0 **** 0.06
37233 H 89.37877671403635 57.09834001791026 106.02135942737561 H 0.0 **** 0.06
37234 H 89.72189842897848 58.2154958325753 107.36474988780236 H 0.0 **** 0.06
37235 H 89.92427200137394 58.75902453017483 105.68152945577742 H 0.0 **** 0.06
37236 C 18.792576726344024 16.590228949954813 16.118747354018865 C 0.0 **** -0.24
37237 H 18.92589973379716 15.509198732571193 16.068658908575742 H 0.0 **** 0.06
37238 H 17.93469276930736 16.8211555316146 16.750065980588516 H 0.0 **** 0.06
37239 H 18.623510864228734 16.982121948640675 15.115791823435217 H 0.0 **** 0.06
37240 H 19.68827317631831 17.04627153967705 16.54034456436682 H 0.0 **** 0.06
37241 C 126.788935138256 166.10687836010212 76.31919550580578 C 0.0 **** -0.24
37242 H 127.02354538741434 165.4238505860966 77.13633399403948 H 0.0 **** 0.06
37243 H 127.7142154573427 166.4983523098104 75.89624672897709 H 0.0 **** 0.06
37244 H 126.18446736207923 166.93103868911717 76.69785186962251 H 0.0 **** 0.06
37245 H 126.23329056783521 165.57301272552365 75.54818397303792 H 0.0 **** 0.06
37246 C 21.589240261695522 63.720237194403865 134.3191238877371 C 0.0 **** -0.24
37247 H 22.244329381319403 62.849232404097734 134.3171047173511 H 0.0 **** 0.06
37248 H 21.021877854461252 63.74660525098432 135.249422661269 H 0.0 **** 0.06
37249 H 20.901168644176465 63.65863033305817 133.4750567854982 H 0.0 **** 0.06
37250 H 22.189340731928354 64.62576060958173 134.23200934549848 H 0.0 **** 0.06
37251 C 111.37386290573957 27.29781015309493 83.76870186952965 C 0.0 **** -0.24
37252 H 110.50222059214374 27.3281234891886 84.42274389687574 H 0.0 **** 0.06
37253 H 111.05149300882167 27.381101776464554 82.73010937001582 H 0.0 **** 0.06
37254 H 111.90253793193662 26.35577819798646 83.91084500154408 H 0.0 **** 0.06
37255 H 112.03816143320657 28.12817321969065 84.01069332402331 H 0.0 **** 0.06
37256 C 32.095626694364285 7.839235112741335 161.38511377019483 C 0.0 **** -0.24
37257 H 31.95174299521676 8.80451411068465 160.90115087625784 H 0.0 **** 0.06
37258 H 31.672001086127352 7.052416196449897 160.76071283259438 H 0.0 **** 0.06
37259 H 31.596781236684194 7.840939308803449 162.35540679396394 H 0.0 **** 0.06
37260 H 33.16132393182028 7.65780341639136 161.52517492341963 H 0.0 **** 0.06
37261 C 130.80948962511576 140.16700512136708 74.9386779406466 C 0.0 **** -0.24
37262 H 130.13877920550345 141.0236167530551 74.87717825459106 H 0.0 **** 0.06
37263 H 131.1797317742708 139.9241729513792 73.94241116565084 H 0.0 **** 0.06
37264 H 130.26883512101875 139.31133680819974 75.34344779620969 H 0.0 **** 0.06
37265 H 131.64892096171792 140.4087261143495 75.59022161776672 H 0.0 **** 0.06
37266 C 152.88944552362045 41.35520380304823 4.191511946195455 C 0.0 **** -0.24
37267 H 152.95868286362656 41.11607232060419 3.130408508860768 H 0.0 **** 0.06
37268 H 153.19108638408858 40.488404915246804 4.779133977049142 H 0.0 **** 0.06
37269 H 151.86113150476012 41.622403149288914 4.43686271283628 H 0.0 **** 0.06
37270 H 153.5464136181827 42.19523585351686 4.418197360692545 H 0.0 **** 0.06
37271 C 16.74969652860335 132.67713422361675 130.8697890732323 C 0.0 **** -0.24
37272 H 16.738920277924336 132.36043838457164 129.8266669257696 H 0.0 **** 0.06
37273 H 16.413189519341387 133.71285919021722 130.93790721432748 H 0.0 **** 0.06
37274 H 17.763375678116574 132.59760626157123 131.2631960954181 H 0.0 **** 0.06
37275 H 16.082739165837324 132.03926070363434 131.4496437355494 H 0.0 **** 0.06
37276 C 15.546723504784211 66.04335370713082 76.19543074538717 C 0.0 **** -0.24
37277 H 15.761456929691235 65.70106084552225 77.20734937573421 H 0.0 **** 0.06
37278 H 14.507241831067688 65.82563444094893 75.9507200020367 H 0.0 **** 0.06
37279 H 16.20156183405075 65.5298847210625 75.4913657272199 H 0.0 **** 0.06
37280 H 15.71734959614605 67.118051984881 76.13221260471006 H 0.0 **** 0.06
37281 C 15.030657971229722 26.72612768753288 87.30937479572503 C 0.0 **** -0.24
37282 H 15.778752149251794 26.84930719990672 86.52680909937044 H 0.0 **** 0.06
37283 H 15.455371964052922 27.025035988476418 88.26803743470327 H 0.0 **** 0.06
37284 H 14.724622386574595 25.68047351803864 87.35781857681377 H 0.0 **** 0.06
37285 H 14.164963177689685 27.348391934737407 87.0852121712361 H 0.0 **** 0.06
37286 C 67.88777187192424 134.59872287931887 23.597693071466033 C 0.0 **** -0.24
37287 H 67.07445800110898 135.02003550425152 23.00552210978281 H 0.0 **** 0.06
37288 H 67.5833530982137 134.54233915789843 24.643490523845657 H 0.0 **** 0.06
37289 H 68.76838510624259 135.2342161170543 23.50805579803295 H 0.0 **** 0.06
37290 H 68.12198843913795 133.59899216399782 23.232657091545256 H 0.0 **** 0.06
37291 C 71.92390353877283 71.96055969266989 137.6311085236341 C 0.0 **** -0.24
37292 H 72.77032626524397 71.86563893744695 138.31224055129383 H 0.0 **** 0.06
37293 H 72.27752108369236 72.30443304488837 136.65888841180063 H 0.0 **** 0.06
37294 H 71.2113598421854 72.6800572776954 138.03483107510513 H 0.0 **** 0.06
37295 H 71.43836805085306 70.99162910765772 137.51943504065616 H 0.0 **** 0.06
37296 C 78.354228223014 136.95634745312987 25.51949373139537 C 0.0 **** -0.24
37297 H 78.16857221849475 137.91756819769628 25.9990338452046 H 0.0 **** 0.06
37298 H 78.07594032776863 137.01542953025205 24.467338164602403 H 0.0 **** 0.06
37299 H 77.7619213099135 136.1847972406248 26.010094321576737 H 0.0 **** 0.06
37300 H 79.41263295362842 136.7080642077291 25.601883394982877 H 0.0 **** 0.06
37301 C 152.25389597075448 172.67318819778293 63.8178399821941 C 0.0 **** -0.24
37302 H 151.50189946193717 172.22094150470866 63.172353092634566 H 0.0 **** 0.06
37303 H 153.1381669734475 172.91763902683573 63.22905073441508 H 0.0 **** 0.06
37304 H 152.52523503096887 171.97093056666364 64.60578890594081 H 0.0 **** 0.06
37305 H 151.85075448000302 173.58244506547382 64.26378961289176 H 0.0 **** 0.06
37306 C 130.680936015681 50.39717458666199 95.4539732504432 C 0.0 **** -0.24
37307 H 130.58342932081933 51.22993386924304 96.15062137730791 H 0.0 **** 0.06
37308 H 131.73392100054159 50.13386276090053 95.34863228050597 H 0.0 **** 0.06
37309 H 130.27938796369466 50.68793015261967 94.482894692054 H 0.0 **** 0.06
37310 H 130.12754058926518 49.53931720137946 95.83420522642785 H 0.0 **** 0.06
37311 C 150.7610276747379 146.2437867349509 47.154072867519915 C 0.0 **** -0.24
37312 H 150.56737142042778 146.9553381100393 46.350584151296516 H 0.0 **** 0.06
37313 H 151.83532496396813 146.08444578635937 47.246760413983 H 0.0 **** 0.06
37314 H 150.26999131440752 145.29707674564173 46.92689298569542 H 0.0 **** 0.06
37315 H 150.36909814006202 146.6404239229629 48.0910410561641 H 0.0 **** 0.06
37316 C 122.22262997660161 48.16949954646377 65.59572316022329 C 0.0 **** -0.24
37317 H 122.72437399082122 48.82495734969682 64.88402997411222 H 0.0 **** 0.06
37318 H 122.76935359689199 48.17227111540096 66.53845099677375 H 0.0 **** 0.06
37319 H 122.19255096830784 47.15560949874448 65.19527660816814 H 0.0 **** 0.06
37320 H 121.20645680239943 48.52526946262867 65.76266926660983 H 0.0 **** 0.06
37321 C 109.5369158669998 69.61431839701424 121.43599234668466 C 0.0 **** -0.24
37322 H 108.61191308880507 69.51703383209309 122.00399564610842 H 0.0 **** 0.06
37323 H 110.30113002917301 70.07515908987358 122.06271380409291 H 0.0 **** 0.06
37324 H 109.36086011692427 70.23856677146517 120.55937352763033 H 0.0 **** 0.06
37325 H 109.87354208247828 68.62717375358002 121.11860545299405 H 0.0 **** 0.06
37326 C 139.35918840410903 65.4169202791033 69.24068591576705 C 0.0 **** -0.24
37327 H 138.65110542560268 66.23495838540094 69.10304371069572 H 0.0 **** 0.06
37328 H 140.2755457228065 65.6335121444165 68.6915261793794 H 0.0 **** 0.06
37329 H 138.92048370992228 64.49173444886628 68.86685499407105 H 0.0 **** 0.06
37330 H 139.58692755369975 65.30908413911754 70.30090401428075 H 0.0 **** 0.06
37331 C 166.82924499585886 54.21247034238918 63.196688257568596 C 0.0 **** -0.24
37332 H 166.63660295129822 55.05098796593539 63.8666706831054 H 0.0 **** 0.06
37333 H 166.7203387760369 53.27770774129077 63.746804158580915 H 0.0 **** 0.06
37334 H 167.8438837403263 54.28753638845289 62.804447876602865 H 0.0 **** 0.06
37335 H 166.11748896747235 54.23504124514962 62.37152882303636 H 0.0 **** 0.06
37336 C 10.433240691857485 58.85231713153155 15.479906052137927 C 0.0 **** -0.24
37337 H 10.185137402776427 59.058648050411136 16.520785718418608 H 0.0 **** 0.06
37338 H 10.813847110976099 59.75995213688739 15.011097300789359 H 0.0 **** 0.06
37339 H 9.540212368873128 58.517986758683435 14.953486301899382 H 0.0 **** 0.06
37340 H 11.194568054763863 58.07410369008085 15.4360808924488 H 0.0 **** 0.06
37341 C 51.35357230816952 62.16283882073236 137.78839442913002 C 0.0 **** -0.24
37342 H 50.67492086710605 61.31324180840579 137.71443960362564 H 0.0 **** 0.06
37343 H 50.86145910326525 63.054771094745945 137.40041942854333 H 0.0 **** 0.06
37344 H 52.25312016484834 61.96152885196915 137.20649826916625 H 0.0 **** 0.06
37345 H 51.6241162783911 62.32143519632933 138.83285618851437 H 0.0 **** 0.06
37346 C 160.25098596017818 147.9716521595654 112.10305076419323 C 0.0 **** -0.24
37347 H 159.6104118913449 148.78762976293217 112.43929565893635 H 0.0 **** 0.06
37348 H 161.0765065212195 147.84675171856424 112.80434021241308 H 0.0 **** 0.06
37349 H 160.64509357947182 148.20330874026274 111.11456730873923 H 0.0 **** 0.06
37350 H 159.6709103833183 147.05052299028625 112.05652618442736 H 0.0 **** 0.06
37351 C 74.21108924468359 48.730698888861184 169.11830183913065 C 0.0 **** -0.24
37352 H 73.6784149751384 48.619649903340246 170.06307929783623 H 0.0 **** 0.06
37353 H 73.69197409560388 48.16990416811717 168.34095897279008 H 0.0 **** 0.06
37354 H 75.22577115524876 48.3472295293505 169.22728838409301 H 0.0 **** 0.06
37355 H 74.24854778700876 49.784189144830435 168.8442374773 H 0.0 **** 0.06
37356 C 39.84470690975691 130.89984311501684 129.06352053788228 C 0.0 **** -0.24
37357 H 39.766797268538966 129.94835127184797 129.58942218435524 H 0.0 **** 0.06
37358 H 40.47002952003112 131.58195877509866 129.64017993921254 H 0.0 **** 0.06
37359 H 38.851005422366214 131.3309133559087 128.94277709437182 H 0.0 **** 0.06
37360 H 40.29147797137122 130.73635922470226 128.08295344997478 H 0.0 **** 0.06
37361 C 31.667962016799265 163.3447376125829 6.128110067839884 C 0.0 **** -0.24
37362 H 30.77256991795082 163.62573289946715 6.6828540016771 H 0.0 **** 0.06
37363 H 32.52669262709054 163.88395990545968 6.527152952260565 H 0.0 **** 0.06
37364 H 31.537303112463235 163.5962417913405 5.075634376048043 H 0.0 **** 0.06
37365 H 31.834883984734063 162.2716616927312 6.226711990232047 H 0.0 **** 0.06
37366 C 43.86659208545933 129.6017250653318 70.6213180281145 C 0.0 **** -0.24
37367 H 43.03139391596903 129.51334014231134 71.31616499705905 H 0.0 **** 0.06
37368 H 43.48342145426071 129.73992254379874 69.61024092327051 H 0.0 **** 0.06
37369 H 44.469251974278365 128.69458121732492 70.66061522776675 H 0.0 **** 0.06
37370 H 44.480235706831365 130.45848558144968 70.89761148873959 H 0.0 **** 0.06
37371 C 103.70472673208442 149.2035138780968 98.46830564218118 C 0.0 **** -0.24
37372 H 104.23110792582824 149.2855269108024 97.5173267317515 H 0.0 **** 0.06
37373 H 103.85706490213218 148.20626134093592 98.88245498220499 H 0.0 **** 0.06
37374 H 102.63981335532938 149.372348340421 98.30845380691062 H 0.0 **** 0.06
37375 H 104.0905452784709 149.94880387270732 99.16283859225695 H 0.0 **** 0.06
37376 C 128.24405818675055 16.014778470352034 51.88592375516741 C 0.0 **** -0.24
37377 H 129.27022242347786 15.897391351770551 51.538278251762165 H 0.0 **** 0.06
37378 H 128.1300506633576 15.524446608792623 52.852918143105896 H 0.0 **** 0.06
37379 H 127.56307587000975 15.562410714464711 51.16580942381627 H 0.0 **** 0.06
37380 H 128.01475296277428 17.075724062833494 51.985812447186035 H 0.0 **** 0.06
37381 C 4.7069062566840785 91.7189287708577 127.09026987244698 C 0.0 **** -0.24
37382 H 4.119136698782796 91.97595040270582 126.20906557647669 H 0.0 **** 0.06
37383 H 5.23474209442702 90.7814933599054 126.91323490009921 H 0.0 **** 0.06
37384 H 4.044843645034234 91.60794694006205 127.94897605864139 H 0.0 **** 0.06
37385 H 5.4301668070972084 92.51099758135427 127.28781581595769 H 0.0 **** 0.06
37386 C 91.3946526327781 112.65184500857578 7.085078902954592 C 0.0 **** -0.24
37387 H 91.76837426166088 113.29621637533796 7.881029830898626 H 0.0 **** 0.06
37388 H 90.31365961039512 112.76761122925168 7.001028452996422 H 0.0 **** 0.06
37389 H 91.6329452588468 111.61324328009664 7.316088166061604 H 0.0 **** 0.06
37390 H 91.86442987655826 112.93079298923976 6.141810884494532 H 0.0 **** 0.06
37391 C 19.615547758965164 38.5676258223873 76.93991184999217 C 0.0 **** -0.24
37392 H 18.927540597902805 37.81086974540398 76.56158844218668 H 0.0 **** 0.06
37393 H 19.55542473094576 39.45851162244048 76.31485113715637 H 0.0 **** 0.06
37394 H 20.63269269080007 38.176221431722354 76.91907969270726 H 0.0 **** 0.06
37395 H 19.34606049946339 38.822620331844945 77.96488824263473 H 0.0 **** 0.06
37396 C 150.75995524869052 157.6398546918776 77.51745125829258 C 0.0 **** -0.24
37397 H 150.6795442626045 158.3832949855172 78.31056965489218 H 0.0 **** 0.06
37398 H 149.78087802188224 157.1961798824585 77.33546596993277 H 0.0 **** 0.06
37399 H 151.4617388465156 156.86208112695988 77.81820238868467 H 0.0 **** 0.06
37400 H 151.11695703712235 158.11973490341674 76.60553134677406 H 0.0 **** 0.06
37401 C 51.73142508672251 114.16138294178245 116.31329859118728 C 0.0 **** -0.24
37402 H 51.71765446048164 113.62709392703991 117.26440051188672 H 0.0 **** 0.06
37403 H 50.712852944881405 114.42496324914754 116.02934017114836 H 0.0 **** 0.06
37404 H 52.17057080981546 113.5236665897703 115.54603848109195 H 0.0 **** 0.06
37405 H 52.32753234361192 115.06860506874347 116.41607679696824 H 0.0 **** 0.06
37406 C 58.787672282786374 23.16169531884143 51.36498391281121 C 0.0 **** -0.24
37407 H 58.91500018258712 23.963147623123064 52.09277302928676 H 0.0 **** 0.06
37408 H 58.999030591453604 23.541087680924775 50.36497476251293 H 0.0 **** 0.06
37409 H 57.76169662999408 22.79447560094684 51.40566379012918 H 0.0 **** 0.06
37410 H 59.473680227255855 22.347116413627944 51.59772733004465 H 0.0 **** 0.06
37411 C 4.876062755014772 163.41031633749927 104.53161639518385 C 0.0 **** -0.24
37412 H 5.615724453605168 164.21027846096558 104.50096750931667 H 0.0 **** 0.06
37413 H 4.08398135525394 163.6747114417697 105.23343155503943 H 0.0 **** 0.06
37414 H 5.353949601481304 162.48565095550921 104.85307594112464 H 0.0 **** 0.06
37415 H 4.449236787240892 163.27232540675234 103.53786778532344 H 0.0 **** 0.06
37416 C 131.3787621022978 172.60742729089122 127.43014015656223 C 0.0 **** -0.24
37417 H 130.33891584624055 172.37209712278747 127.65584493457169 H 0.0 **** 0.06
37418 H 131.80082735842558 173.20358697668973 128.23988935561536 H 0.0 **** 0.06
37419 H 131.42976734736905 173.17067287849184 126.49864563589728 H 0.0 **** 0.06
37420 H 131.94608435065 171.68256122887925 127.32645594599202 H 0.0 **** 0.06
37421 C 68.84328060988273 124.16767355187142 152.80240265162428 C 0.0 **** -0.24
37422 H 68.11880208442247 123.39198021866292 153.05325309089335 H 0.0 **** 0.06
37423 H 69.84210016387487 123.7329490530984 152.76579268111652 H 0.0 **** 0.06
37424 H 68.81403080932262 124.95055540734856 153.55987121085923 H 0.0 **** 0.06
37425 H 68.59629280001087 124.59331915063427 151.8293409594138 H 0.0 **** 0.06
37426 C 37.65268145227668 103.30296513619814 93.97935310085981 C 0.0 **** -0.24
37427 H 38.04723056130052 104.13660608777914 94.5601843554644 H 0.0 **** 0.06
37428 H 36.57465011542172 103.41910435630433 93.86455186676685 H 0.0 **** 0.06
37429 H 37.86524362775123 102.36775365984161 94.49640916597065 H 0.0 **** 0.06
37430 H 38.12396430111795 103.29029046908045 92.99679724873931 H 0.0 **** 0.06
37431 C 170.99206368179034 82.06228361456438 15.309708886807563 C 0.0 **** -0.24
37432 H 171.95050986535028 81.68601076588989 14.951439638491841 H 0.0 **** 0.06
37433 H 170.44013779398477 82.4991961162995 14.47640671134858 H 0.0 **** 0.06
37434 H 171.16270179741204 82.82293218732535 16.071608204193645 H 0.0 **** 0.06
37435 H 170.41748653001093 81.24139359859144 15.736701642741615 H 0.0 **** 0.06
37436 C 2.6018432843493926 45.69298281035857 99.91522958659837 C 0.0 **** -0.24
37437 H 3.180805385634386 44.87649811715542 100.34708004991879 H 0.0 **** 0.06
37438 H 2.8750297461636976 45.81738055536671 98.86700605852664 H 0.0 **** 0.06
37439 H 2.813545335975398 46.614871201996024 100.45792494383974 H 0.0 **** 0.06
37440 H 1.5388202873087735 45.46373696158858 99.98882734750083 H 0.0 **** 0.06
37441 C 70.31976924725681 82.86180099717224 128.28120307051805 C 0.0 **** -0.24
37442 H 70.02293728490585 81.99114263549524 128.86543844361083 H 0.0 **** 0.06
37443 H 71.36911269538571 83.08839215425058 128.47405017003243 H 0.0 **** 0.06
37444 H 69.70477374497337 83.71592345040776 128.5657176897695 H 0.0 **** 0.06
37445 H 70.18172484804816 82.65229783017762 127.22025096751577 H 0.0 **** 0.06
37446 C 86.39234215744273 153.95376028846945 145.96002991999686 C 0.0 **** -0.24
37447 H 85.61499284399775 154.6824773126383 145.72762991499457 H 0.0 **** 0.06
37448 H 86.13204645396956 153.42468863793158 146.87614535368857 H 0.0 **** 0.06
37449 H 87.34408969396179 154.4689334778536 146.0949018348292 H 0.0 **** 0.06
37450 H 86.47815714840522 153.24148586720742 145.13985487700108 H 0.0 **** 0.06
37451 C 132.66107424383307 30.14274904504248 52.777448165429576 C 0.0 **** -0.24
37452 H 132.27884767645827 30.50558080189694 53.7310723710969 H 0.0 **** 0.06
37453 H 131.9632227568244 29.416291029945228 52.35924213703828 H 0.0 **** 0.06
37454 H 133.6302362712321 29.669620977417765 52.930735281471726 H 0.0 **** 0.06
37455 H 132.77030325341417 30.980165531390014 52.08743304180183 H 0.0 **** 0.06
37456 C 134.80082785377888 11.64636887827642 40.74680037646124 C 0.0 **** -0.24
37457 H 135.19245966525972 12.663624360883155 40.75900688315568 H 0.0 **** 0.06
37458 H 134.0677836248101 11.529815163882994 41.544840830828974 H 0.0 **** 0.06
37459 H 135.6186214721717 10.941505511031053 40.89795733606732 H 0.0 **** 0.06
37460 H 134.32600968348947 11.452127971023742 39.78546779150676 H 0.0 **** 0.06
37461 C 79.74661247585657 89.46739978688869 9.43317223903233 C 0.0 **** -0.24
37462 H 79.5963639828788 88.39744165878484 9.28897382851602 H 0.0 **** 0.06
37463 H 80.75228006942352 89.64426070584163 9.814024021538444 H 0.0 **** 0.06
37464 H 79.01446605417824 89.84469441181413 10.146623392709841 H 0.0 **** 0.06
37465 H 79.6238786515051 89.98227658334577 8.479624906968041 H 0.0 **** 0.06
37466 C 37.67562189214155 69.55360818172382 154.51744446528033 C 0.0 **** -0.24
37467 H 37.26558695519333 68.69601768368851 155.05147732207598 H 0.0 **** 0.06
37468 H 38.700417474109884 69.33641396714043 154.2163118164917 H 0.0 **** 0.06
37469 H 37.664150846762766 70.42643107592495 155.1690561227177 H 0.0 **** 0.06
37470 H 37.071197952302356 69.75264279825123 153.63255175770527 H 0.0 **** 0.06
37471 C 81.61959446425283 67.06587337302845 62.55008680660177 C 0.0 **** -0.24
37472 H 81.13875390828696 67.43358701002481 63.456339649414474 H 0.0 **** 0.06
37473 H 82.2026458542245 66.17566491327527 62.78384550873977 H 0.0 **** 0.06
37474 H 82.27695745343851 67.83674443399019 62.14879031593898 H 0.0 **** 0.06
37475 H 80.85769896431214 66.81803831465605 61.81080862794687 H 0.0 **** 0.06
37476 C 100.8668777200208 10.952981995354364 132.84349957415222 C 0.0 **** -0.24
37477 H 100.14662574804626 11.024301111618911 133.6581042922592 H 0.0 **** 0.06
37478 H 101.25555051862489 9.934866904589306 132.79000780673337 H 0.0 **** 0.06
37479 H 101.68840783741533 11.646769500880374 133.0230778566498 H 0.0 **** 0.06
37480 H 100.37827482123535 11.205004655340211 131.90326773019967 H 0.0 **** 0.06
37481 C 22.847743210203916 131.1394659180344 166.64847568991908 C 0.0 **** -0.24
37482 H 21.797644252821776 130.84867599315248 166.62594626159733 H 0.0 **** 0.06
37483 H 23.42744823206729 130.45362924261704 166.03034193502756 H 0.0 **** 0.06
37484 H 23.211911710139532 131.10222047504783 167.67476280492625 H 0.0 **** 0.06
37485 H 22.951082542428395 132.15344330564668 166.26156350764614 H 0.0 **** 0.06
37486 C 22.74167194252314 78.16885864137696 48.389094044108205 C 0.0 **** -0.24
37487 H 23.200595021310107 79.02871872245896 47.901561048991766 H 0.0 **** 0.06
37488 H 22.69451309075407 77.33569589892738 47.68683261636964 H 0.0 **** 0.06
37489 H 21.734517275498035 78.42923696210084 48.712355163607015 H 0.0 **** 0.06
37490 H 23.338441239303563 77.88188292357155 49.25532931802046 H 0.0 **** 0.06
37491 C 41.84483596058527 164.0018877304305 130.3670693575085 C 0.0 **** -0.24
37492 H 41.46570517593676 164.5633805172924 129.513185943772 H 0.0 **** 0.06
37493 H 41.29803260897182 163.06301387287402 130.4561601427465 H 0.0 **** 0.06
37494 H 41.70974835890331 164.5892432253441 131.27620141264487 H 0.0 **** 0.06
37495 H 42.90488633860468 163.79399801831644 130.22357290354375 H 0.0 **** 0.06
37496 C 140.96159296826994 39.218694048912425 48.391256323452126 C 0.0 **** -0.24
37497 H 140.27943185881063 38.78329721603859 49.12140425480794 H 0.0 **** 0.06
37498 H 140.66623528655757 38.90862335259027 47.38899728378868 H 0.0 **** 0.06
37499 H 141.97634722883242 38.87527019320416 48.593622440732815 H 0.0 **** 0.06
37500 H 140.92448308826906 40.30525065415833 48.46173151913791 H 0.0 **** 0.06
@<TRIPOS>BOND
1 1 2 28
2 1 3 28
3 1 4 28
4 1 5 28
5 6 7 28
6 6 8 28
7 6 9 28
8 6 10 28
9 11 12 28
10 11 13 28
11 11 14 28
12 11 15 28
13 16 17 28
14 16 18 28
15 16 19 28
16 16 20 28
17 21 22 28
18 21 23 28
19 21 24 28
20 21 25 28
21 26 27 28
22 26 28 28
23 26 29 28
24 26 30 28
25 31 32 28
26 31 33 28
27 31 34 28
28 31 35 28
29 36 37 28
30 36 38 28
31 36 39 28
32 36 40 28
33 41 42 28
34 41 43 28
35 41 44 28
36 41 45 28
37 46 47 28
38 46 48 28
39 46 49 28
40 46 50 28
41 51 52 28
42 51 53 28
43 51 54 28
44 51 55 28
45 56 57 28
46 56 58 28
47 56 59 28
48 56 60 28
49 61 62 28
50 61 63 28
51 61 64 28
52 61 65 28
53 66 67 28
54 66 68 28
55 66 69 28
56 66 70 28
57 71 72 28
58 71 73 28
59 71 74 28
60 71 75 28
61 76 77 28
62 76 78 28
63 76 79 28
64 76 80 28
65 81 82 28
66 81 83 28
67 81 84 28
68 81 85 28
69 86 87 28
70 86 88 28
71 86 89 28
72 86 90 28
73 91 92 28
74 91 93 28
75 91 94 28
76 91 95 28
77 96 97 28
78 96 98 28
79 96 99 28
80 96 100 28
81 101 102 28
82 101 103 28
83 101 104 28
84 101 105 28
85 106 107 28
86 106 108 28
87 106 109 28
88 106 110 28
89 111 112 28
90 111 113 28
91 111 114 28
92 111 115 28
93 116 117 28
94 116 118 28
95 116 119 28
96 116 120 28
97 121 122 28
98 121 123 28
99 121 124 28
100 121 125 28
101 126 127 28
102 126 128 28
103 126 129 28
104 126 130 28
105 131 132 28
106 131 133 28
107 131 134 28
108 131 135 28
109 136 137 28
110 136 138 28
111 136 139 28
112 136 140 28
113 141 142 28
114 141 143 28
115 141 144 28
116 141 145 28
117 146 147 28
118 146 148 28
119 146 149 28
120 146 150 28
121 151 152 28
122 151 153 28
123 151 154 28
124 151 155 28
125 156 157 28
126 156 158 28
127 156 159 28
128 156 160 28
129 161 162 28
130 161 163 28
131 161 164 28
132 161 165 28
133 166 167 28
134 166 168 28
135 166 169 28
136 166 170 28
137 171 172 28
138 171 173 28
139 171 174 28
140 171 175 28
141 176 177 28
142 176 178 28
143 176 179 28
144 176 180 28
145 181 182 28
146 181 183 28
147 181 184 28
148 181 185 28
149 186 187 28
150 186 188 28
151 186 189 28
152 186 190 28
153 191 192 28
154 191 193 28
155 191 194 28
156 191 195 28
157 196 197 28
158 196 198 28
159 196 199 28
160 196 200 28
161 201 202 28
162 201 203 28
163 201 204 28
164 201 205 28
165 206 207 28
166 206 208 28
167 206 209 28
168 206 210 28
169 211 212 28
170 211 213 28
171 211 214 28
172 211 215 28
173 216 217 28
174 216 218 28
175 216 219 28
176 216 220 28
177 221 222 28
178 221 223 28
179 221 224 28
180 221 225 28
181 226 227 28
182 226 228 28
183 226 229 28
184 226 230 28
185 231 232 28
186 231 233 28
187 231 234 28
188 231 235 28
189 236 237 28
190 236 238 28
191 236 239 28
192 236 240 28
193 241 242 28
194 241 243 28
195 241 244 28
196 241 245 28
197 246 247 28
198 246 248 28
199 246 249 28
200 246 250 28
201 251 252 28
202 251 253 28
203 251 254 28
204 251 255 28
205 256 257 28
206 256 258 28
207 256 259 28
208 256 260 28
209 261 262 28
210 261 263 28
211 261 264 28
212 261 265 28
213 266 267 28
214 266 268 28
215 266 269 28
216 266 270 28
217 271 272 28
218 271 273 28
219 271 274 28
220 271 275 28
221 276 277 28
222 276 278 28
223 276 279 28
224 276 280 28
225 281 282 28
226 281 283 28
227 281 284 28
228 281 285 28
229 286 287 28
230 286 288 28
231 286 289 28
232 286 290 28
233 291 292 28
234 291 293 28
235 291 294 28
236 291 295 28
237 296 297 28
238 296 298 28
239 296 299 28
240 296 300 28
241 301 302 28
242 301 303 28
243 301 304 28
244 301 305 28
245 306 307 28
246 306 308 28
247 306 309 28
248 306 310 28
249 311 312 28
250 311 313 28
251 311 314 28
252 311 315 28
253 316 317 28
254 316 318 28
255 316 319 28
256 316 320 28
257 321 322 28
258 321 323 28
259 321 324 28
260 321 325 28
261 326 327 28
262 326 328 28
263 326 329 28
264 326 330 28
265 331 332 28
266 331 333 28
267 331 334 28
268 331 335 28
269 336 337 28
270 336 338 28
271 336 339 28
272 336 340 28
273 341 342 28
274 341 343 28
275 341 344 28
276 341 345 28
277 346 347 28
278 346 348 28
279 346 349 28
280 346 350 28
281 351 352 28
282 351 353 28
283 351 354 28
284 351 355 28
285 356 357 28
286 356 358 28
287 356 359 28
288 356 360 28
289 361 362 28
290 361 363 28
291 361 364 28
292 361 365 28
293 366 367 28
294 366 368 28
295 366 369 28
296 366 370 28
297 371 372 28
298 371 373 28
299 371 374 28
300 371 375 28
301 376 377 28
302 376 378 28
303 376 379 28
304 376 380 28
305 381 382 28
306 381 383 28
307 381 384 28
308 381 385 28
309 386 387 28
310 386 388 28
311 386 389 28
312 386 390 28
313 391 392 28
314 391 393 28
315 391 394 28
316 391 395 28
317 396 397 28
318 396 398 28
319 396 399 28
320 396 400 28
321 401 402 28
322 401 403 28
323 401 404 28
324 401 405 28
325 406 407 28
326 406 408 28
327 406 409 28
328 406 410 28
329 411 412 28
330 411 413 28
331 411 414 28
332 411 415 28
333 416 417 28
334 416 418 28
335 416 419 28
336 416 420 28
337 421 422 28
338 421 423 28
339 421 424 28
340 421 425 28
341 426 427 28
342 426 428 28
343 426 429 28
344 426 430 28
345 431 432 28
346 431 433 28
347 431 434 28
348 431 435 28
349 436 437 28
350 436 438 28
351 436 439 28
352 436 440 28
353 441 442 28
354 441 443 28
355 441 444 28
356 441 445 28
357 446 447 28
358 446 448 28
359 446 449 28
360 446 450 28
361 451 452 28
362 451 453 28
363 451 454 28
364 451 455 28
365 456 457 28
366 456 458 28
367 456 459 28
368 456 460 28
369 461 462 28
370 461 463 28
371 461 464 28
372 461 465 28
373 466 467 28
374 466 468 28
375 466 469 28
376 466 470 28
377 471 472 28
378 471 473 28
379 471 474 28
380 471 475 28
381 476 477 28
382 476 478 28
383 476 479 28
384 476 480 28
385 481 482 28
386 481 483 28
387 481 484 28
388 481 485 28
389 486 487 28
390 486 488 28
391 486 489 28
392 486 490 28
393 491 492 28
394 491 493 28
395 491 494 28
396 491 495 28
397 496 497 28
398 496 498 28
399 496 499 28
400 496 500 28
401 501 502 28
402 501 503 28
403 501 504 28
404 501 505 28
405 506 507 28
406 506 508 28
407 506 509 28
408 506 510 28
409 511 512 28
410 511 513 28
411 511 514 28
412 511 515 28
413 516 517 28
414 516 518 28
415 516 519 28
416 516 520 28
417 521 522 28
418 521 523 28
419 521 524 28
420 521 525 28
421 526 527 28
422 526 528 28
423 526 529 28
424 526 530 28
425 531 532 28
426 531 533 28
427 531 534 28
428 531 535 28
429 536 537 28
430 536 538 28
431 536 539 28
432 536 540 28
433 541 542 28
434 541 543 28
435 541 544 28
436 541 545 28
437 546 547 28
438 546 548 28
439 546 549 28
440 546 550 28
441 551 552 28
442 551 553 28
443 551 554 28
444 551 555 28
445 556 557 28
446 556 558 28
447 556 559 28
448 556 560 28
449 561 562 28
450 561 563 28
451 561 564 28
452 561 565 28
453 566 567 28
454 566 568 28
455 566 569 28
456 566 570 28
457 571 572 28
458 571 573 28
459 571 574 28
460 571 575 28
461 576 577 28
462 576 578 28
463 576 579 28
464 576 580 28
465 581 582 28
466 581 583 28
467 581 584 28
468 581 585 28
469 586 587 28
470 586 588 28
471 586 589 28
472 586 590 28
473 591 592 28
474 591 593 28
475 591 594 28
476 591 595 28
477 596 597 28
478 596 598 28
479 596 599 28
480 596 600 28
481 601 602 28
482 601 603 28
483 601 604 28
484 601 605 28
485 606 607 28
486 606 608 28
487 606 609 28
488 606 610 28
489 611 612 28
490 611 613 28
491 611 614 28
492 611 615 28
493 616 617 28
494 616 618 28
495 616 619 28
496 616 620 28
497 621 622 28
498 621 623 28
499 621 624 28
500 621 625 28
501 626 627 28
502 626 628 28
503 626 629 28
504 626 630 28
505 631 632 28
506 631 633 28
507 631 634 28
508 631 635 28
509 636 637 28
510 636 638 28
511 636 639 28
512 636 640 28
513 641 642 28
514 641 643 28
515 641 644 28
516 641 645 28
517 646 647 28
518 646 648 28
519 646 649 28
520 646 650 28
521 651 652 28
522 651 653 28
523 651 654 28
524 651 655 28
525 656 657 28
526 656 658 28
527 656 659 28
528 656 660 28
529 661 662 28
530 661 663 28
531 661 664 28
532 661 665 28
533 666 667 28
534 666 668 28
535 666 669 28
536 666 670 28
537 671 672 28
538 671 673 28
539 671 674 28
540 671 675 28
541 676 677 28
542 676 678 28
543 676 679 28
544 676 680 28
545 681 682 28
546 681 683 28
547 681 684 28
548 681 685 28
549 686 687 28
550 686 688 28
551 686 689 28
552 686 690 28
553 691 692 28
554 691 693 28
555 691 694 28
556 691 695 28
557 696 697 28
558 696 698 28
559 696 699 28
560 696 700 28
561 701 702 28
562 701 703 28
563 701 704 28
564 701 705 28
565 706 707 28
566 706 708 28
567 706 709 28
568 706 710 28
569 711 712 28
570 711 713 28
571 711 714 28
572 711 715 28
573 716 717 28
574 716 718 28
575 716 719 28
576 716 720 28
577 721 722 28
578 721 723 28
579 721 724 28
580 721 725 28
581 726 727 28
582 726 728 28
583 726 729 28
584 726 730 28
585 731 732 28
586 731 733 28
587 731 734 28
588 731 735 28
589 736 737 28
590 736 738 28
591 736 739 28
592 736 740 28
593 741 742 28
594 741 743 28
595 741 744 28
596 741 745 28
597 746 747 28
598 746 748 28
599 746 749 28
600 746 750 28
601 751 752 28
602 751 753 28
603 751 754 28
604 751 755 28
605 756 757 28
606 756 758 28
607 756 759 28
608 756 760 28
609 761 762 28
610 761 763 28
611 761 764 28
612 761 765 28
613 766 767 28
614 766 768 28
615 766 769 28
616 766 770 28
617 771 772 28
618 771 773 28
619 771 774 28
620 771 775 28
621 776 777 28
622 776 778 28
623 776 779 28
624 776 780 28
625 781 782 28
626 781 783 28
627 781 784 28
628 781 785 28
629 786 787 28
630 786 788 28
631 786 789 28
632 786 790 28
633 791 792 28
634 791 793 28
635 791 794 28
636 791 795 28
637 796 797 28
638 796 798 28
639 796 799 28
640 796 800 28
641 801 802 28
642 801 803 28
643 801 804 28
644 801 805 28
645 806 807 28
646 806 808 28
647 806 809 28
648 806 810 28
649 811 812 28
650 811 813 28
651 811 814 28
652 811 815 28
653 816 817 28
654 816 818 28
655 816 819 28
656 816 820 28
657 821 822 28
658 821 823 28
659 821 824 28
660 821 825 28
661 826 827 28
662 826 828 28
663 826 829 28
664 826 830 28
665 831 832 28
666 831 833 28
667 831 834 28
668 831 835 28
669 836 837 28
670 836 838 28
671 836 839 28
672 836 840 28
673 841 842 28
674 841 843 28
675 841 844 28
676 841 845 28
677 846 847 28
678 846 848 28
679 846 849 28
680 846 850 28
681 851 852 28
682 851 853 28
683 851 854 28
684 851 855 28
685 856 857 28
686 856 858 28
687 856 859 28
688 856 860 28
689 861 862 28
690 861 863 28
691 861 864 28
692 861 865 28
693 866 867 28
694 866 868 28
695 866 869 28
696 866 870 28
697 871 872 28
698 871 873 28
699 871 874 28
700 871 875 28
701 876 877 28
702 876 878 28
703 876 879 28
704 876 880 28
705 881 882 28
706 881 883 28
707 881 884 28
708 881 885 28
709 886 887 28
710 886 888 28
711 886 889 28
712 886 890 28
713 891 892 28
714 891 893 28
715 891 894 28
716 891 895 28
717 896 897 28
718 896 898 28
719 896 899 28
720 896 900 28
721 901 902 28
722 901 903 28
723 901 904 28
724 901 905 28
725 906 907 28
726 906 908 28
727 906 909 28
728 906 910 28
729 911 912 28
730 911 913 28
731 911 914 28
732 911 915 28
733 916 917 28
734 916 918 28
735 916 919 28
736 916 920 28
737 921 922 28
738 921 923 28
739 921 924 28
740 921 925 28
741 926 927 28
742 926 928 28
743 926 929 28
744 926 930 28
745 931 932 28
746 931 933 28
747 931 934 28
748 931 935 28
749 936 937 28
750 936 938 28
751 936 939 28
752 936 940 28
753 941 942 28
754 941 943 28
755 941 944 28
756 941 945 28
757 946 947 28
758 946 948 28
759 946 949 28
760 946 950 28
761 951 952 28
762 951 953 28
763 951 954 28
764 951 955 28
765 956 957 28
766 956 958 28
767 956 959 28
768 956 960 28
769 961 962 28
770 961 963 28
771 961 964 28
772 961 965 28
773 966 967 28
774 966 968 28
775 966 969 28
776 966 970 28
777 971 972 28
778 971 973 28
779 971 974 28
780 971 975 28
781 976 977 28
782 976 978 28
783 976 979 28
784 976 980 28
785 981 982 28
786 981 983 28
787 981 984 28
788 981 985 28
789 986 987 28
790 986 988 28
791 986 989 28
792 986 990 28
793 991 992 28
794 991 993 28
795 991 994 28
796 991 995 28
797 996 997 28
798 996 998 28
799 996 999 28
800 996 1000 28
801 1001 1002 28
802 1001 1003 28
803 1001 1004 28
804 1001 1005 28
805 1006 1007 28
806 1006 1008 28
807 1006 1009 28
808 1006 1010 28
809 1011 1012 28
810 1011 1013 28
811 1011 1014 28
812 1011 1015 28
813 1016 1017 28
814 1016 1018 28
815 1016 1019 28
816 1016 1020 28
817 1021 1022 28
818 1021 1023 28
819 1021 1024 28
820 1021 1025 28
821 1026 1027 28
822 1026 1028 28
823 1026 1029 28
824 1026 1030 28
825 1031 1032 28
826 1031 1033 28
827 1031 1034 28
828 1031 1035 28
829 1036 1037 28
830 1036 1038 28
831 1036 1039 28
832 1036 1040 28
833 1041 1042 28
834 1041 1043 28
835 1041 1044 28
836 1041 1045 28
837 1046 1047 28
838 1046 1048 28
839 1046 1049 28
840 1046 1050 28
841 1051 1052 28
842 1051 1053 28
843 1051 1054 28
844 1051 1055 28
845 1056 1057 28
846 1056 1058 28
847 1056 1059 28
848 1056 1060 28
849 1061 1062 28
850 1061 1063 28
851 1061 1064 28
852 1061 1065 28
853 1066 1067 28
854 1066 1068 28
855 1066 1069 28
856 1066 1070 28
857 1071 1072 28
858 1071 1073 28
859 1071 1074 28
860 1071 1075 28
861 1076 1077 28
862 1076 1078 28
863 1076 1079 28
864 1076 1080 28
865 1081 1082 28
866 1081 1083 28
867 1081 1084 28
868 1081 1085 28
869 1086 1087 28
870 1086 1088 28
871 1086 1089 28
872 1086 1090 28
873 1091 1092 28
874 1091 1093 28
875 1091 1094 28
876 1091 1095 28
877 1096 1097 28
878 1096 1098 28
879 1096 1099 28
880 1096 1100 28
881 1101 1102 28
882 1101 1103 28
883 1101 1104 28
884 1101 1105 28
885 1106 1107 28
886 1106 1108 28
887 1106 1109 28
888 1106 1110 28
889 1111 1112 28
890 1111 1113 28
891 1111 1114 28
892 1111 1115 28
893 1116 1117 28
894 1116 1118 28
895 1116 1119 28
896 1116 1120 28
897 1121 1122 28
898 1121 1123 28
899 1121 1124 28
900 1121 1125 28
901 1126 1127 28
902 1126 1128 28
903 1126 1129 28
904 1126 1130 28
905 1131 1132 28
906 1131 1133 28
907 1131 1134 28
908 1131 1135 28
909 1136 1137 28
910 1136 1138 28
911 1136 1139 28
912 1136 1140 28
913 1141 1142 28
914 1141 1143 28
915 1141 1144 28
916 1141 1145 28
917 1146 1147 28
918 1146 1148 28
919 1146 1149 28
920 1146 1150 28
921 1151 1152 28
922 1151 1153 28
923 1151 1154 28
924 1151 1155 28
925 1156 1157 28
926 1156 1158 28
927 1156 1159 28
928 1156 1160 28
929 1161 1162 28
930 1161 1163 28
931 1161 1164 28
932 1161 1165 28
933 1166 1167 28
934 1166 1168 28
935 1166 1169 28
936 1166 1170 28
937 1171 1172 28
938 1171 1173 28
939 1171 1174 28
940 1171 1175 28
941 1176 1177 28
942 1176 1178 28
943 1176 1179 28
944 1176 1180 28
945 1181 1182 28
946 1181 1183 28
947 1181 1184 28
948 1181 1185 28
949 1186 1187 28
950 1186 1188 28
951 1186 1189 28
952 1186 1190 28
953 1191 1192 28
954 1191 1193 28
955 1191 1194 28
956 1191 1195 28
957 1196 1197 28
958 1196 1198 28
959 1196 1199 28
960 1196 1200 28
961 1201 1202 28
962 1201 1203 28
963 1201 1204 28
964 1201 1205 28
965 1206 1207 28
966 1206 1208 28
967 1206 1209 28
968 1206 1210 28
969 1211 1212 28
970 1211 1213 28
971 1211 1214 28
972 1211 1215 28
973 1216 1217 28
974 1216 1218 28
975 1216 1219 28
976 1216 1220 28
977 1221 1222 28
978 1221 1223 28
979 1221 1224 28
980 1221 1225 28
981 1226 1227 28
982 1226 1228 28
983 1226 1229 28
984 1226 1230 28
985 1231 1232 28
986 1231 1233 28
987 1231 1234 28
988 1231 1235 28
989 1236 1237 28
990 1236 1238 28
991 1236 1239 28
992 1236 1240 28
993 1241 1242 28
994 1241 1243 28
995 1241 1244 28
996 1241 1245 28
997 1246 1247 28
998 1246 1248 28
999 1246 1249 28
1000 1246 1250 28
1001 1251 1252 28
1002 1251 1253 28
1003 1251 1254 28
1004 1251 1255 28
1005 1256 1257 28
1006 1256 1258 28
1007 1256 1259 28
1008 1256 1260 28
1009 1261 1262 28
1010 1261 1263 28
1011 1261 1264 28
1012 1261 1265 28
1013 1266 1267 28
1014 1266 1268 28
1015 1266 1269 28
1016 1266 1270 28
1017 1271 1272 28
1018 1271 1273 28
1019 1271 1274 28
1020 1271 1275 28
1021 1276 1277 28
1022 1276 1278 28
1023 1276 1279 28
1024 1276 1280 28
1025 1281 1282 28
1026 1281 1283 28
1027 1281 1284 28
1028 1281 1285 28
1029 1286 1287 28
1030 1286 1288 28
1031 1286 1289 28
1032 1286 1290 28
1033 1291 1292 28
1034 1291 1293 28
1035 1291 1294 28
1036 1291 1295 28
1037 1296 1297 28
1038 1296 1298 28
1039 1296 1299 28
1040 1296 1300 28
1041 1301 1302 28
1042 1301 1303 28
1043 1301 1304 28
1044 1301 1305 28
1045 1306 1307 28
1046 1306 1308 28
1047 1306 1309 28
1048 1306 1310 28
1049 1311 1312 28
1050 1311 1313 28
1051 1311 1314 28
1052 1311 1315 28
1053 1316 1317 28
1054 1316 1318 28
1055 1316 1319 28
1056 1316 1320 28
1057 1321 1322 28
1058 1321 1323 28
1059 1321 1324 28
1060 1321 1325 28
1061 1326 1327 28
1062 1326 1328 28
1063 1326 1329 28
1064 1326 1330 28
1065 1331 1332 28
1066 1331 1333 28
1067 1331 1334 28
1068 1331 1335 28
1069 1336 1337 28
1070 1336 1338 28
1071 1336 1339 28
1072 1336 1340 28
1073 1341 1342 28
1074 1341 1343 28
1075 1341 1344 28
1076 1341 1345 28
1077 1346 1347 28
1078 1346 1348 28
1079 1346 1349 28
1080 1346 1350 28
1081 1351 1352 28
1082 1351 1353 28
1083 1351 1354 28
1084 1351 1355 28
1085 1356 1357 28
1086 1356 1358 28
1087 1356 1359 28
1088 1356 1360 28
1089 1361 1362 28
1090 1361 1363 28
1091 1361 1364 28
1092 1361 1365 28
1093 1366 1367 28
1094 1366 1368 28
1095 1366 1369 28
1096 1366 1370 28
1097 1371 1372 28
1098 1371 1373 28
1099 1371 1374 28
1100 1371 1375 28
1101 1376 1377 28
1102 1376 1378 28
1103 1376 1379 28
1104 1376 1380 28
1105 1381 1382 28
1106 1381 1383 28
1107 1381 1384 28
1108 1381 1385 28
1109 1386 1387 28
1110 1386 1388 28
1111 1386 1389 28
1112 1386 1390 28
1113 1391 1392 28
1114 1391 1393 28
1115 1391 1394 28
1116 1391 1395 28
1117 1396 1397 28
1118 1396 1398 28
1119 1396 1399 28
1120 1396 1400 28
1121 1401 1402 28
1122 1401 1403 28
1123 1401 1404 28
1124 1401 1405 28
1125 1406 1407 28
1126 1406 1408 28
1127 1406 1409 28
1128 1406 1410 28
1129 1411 1412 28
1130 1411 1413 28
1131 1411 1414 28
1132 1411 1415 28
1133 1416 1417 28
1134 1416 1418 28
1135 1416 1419 28
1136 1416 1420 28
1137 1421 1422 28
1138 1421 1423 28
1139 1421 1424 28
1140 1421 1425 28
1141 1426 1427 28
1142 1426 1428 28
1143 1426 1429 28
1144 1426 1430 28
1145 1431 1432 28
1146 1431 1433 28
1147 1431 1434 28
1148 1431 1435 28
1149 1436 1437 28
1150 1436 1438 28
1151 1436 1439 28
1152 1436 1440 28
1153 1441 1442 28
1154 1441 1443 28
1155 1441 1444 28
1156 1441 1445 28
1157 1446 1447 28
1158 1446 1448 28
1159 1446 1449 28
1160 1446 1450 28
1161 1451 1452 28
1162 1451 1453 28
1163 1451 1454 28
1164 1451 1455 28
1165 1456 1457 28
1166 1456 1458 28
1167 1456 1459 28
1168 1456 1460 28
1169 1461 1462 28
1170 1461 1463 28
1171 1461 1464 28
1172 1461 1465 28
1173 1466 1467 28
1174 1466 1468 28
1175 1466 1469 28
1176 1466 1470 28
1177 1471 1472 28
1178 1471 1473 28
1179 1471 1474 28
1180 1471 1475 28
1181 1476 1477 28
1182 1476 1478 28
1183 1476 1479 28
1184 1476 1480 28
1185 1481 1482 28
1186 1481 1483 28
1187 1481 1484 28
1188 1481 1485 28
1189 1486 1487 28
1190 1486 1488 28
1191 1486 1489 28
1192 1486 1490 28
1193 1491 1492 28
1194 1491 1493 28
1195 1491 1494 28
1196 1491 1495 28
1197 1496 1497 28
1198 1496 1498 28
1199 1496 1499 28
1200 1496 1500 28
1201 1501 1502 28
1202 1501 1503 28
1203 1501 1504 28
1204 1501 1505 28
1205 1506 1507 28
1206 1506 1508 28
1207 1506 1509 28
1208 1506 1510 28
1209 1511 1512 28
1210 1511 1513 28
1211 1511 1514 28
1212 1511 1515 28
1213 1516 1517 28
1214 1516 1518 28
1215 1516 1519 28
1216 1516 1520 28
1217 1521 1522 28
1218 1521 1523 28
1219 1521 1524 28
1220 1521 1525 28
1221 1526 1527 28
1222 1526 1528 28
1223 1526 1529 28
1224 1526 1530 28
1225 1531 1532 28
1226 1531 1533 28
1227 1531 1534 28
1228 1531 1535 28
1229 1536 1537 28
1230 1536 1538 28
1231 1536 1539 28
1232 1536 1540 28
1233 1541 1542 28
1234 1541 1543 28
1235 1541 1544 28
1236 1541 1545 28
1237 1546 1547 28
1238 1546 1548 28
1239 1546 1549 28
1240 1546 1550 28
1241 1551 1552 28
1242 1551 1553 28
1243 1551 1554 28
1244 1551 1555 28
1245 1556 1557 28
1246 1556 1558 28
1247 1556 1559 28
1248 1556 1560 28
1249 1561 1562 28
1250 1561 1563 28
1251 1561 1564 28
1252 1561 1565 28
1253 1566 1567 28
1254 1566 1568 28
1255 1566 1569 28
1256 1566 1570 28
1257 1571 1572 28
1258 1571 1573 28
1259 1571 1574 28
1260 1571 1575 28
1261 1576 1577 28
1262 1576 1578 28
1263 1576 1579 28
1264 1576 1580 28
1265 1581 1582 28
1266 1581 1583 28
1267 1581 1584 28
1268 1581 1585 28
1269 1586 1587 28
1270 1586 1588 28
1271 1586 1589 28
1272 1586 1590 28
1273 1591 1592 28
1274 1591 1593 28
1275 1591 1594 28
1276 1591 1595 28
1277 1596 1597 28
1278 1596 1598 28
1279 1596 1599 28
1280 1596 1600 28
1281 1601 1602 28
1282 1601 1603 28
1283 1601 1604 28
1284 1601 1605 28
1285 1606 1607 28
1286 1606 1608 28
1287 1606 1609 28
1288 1606 1610 28
1289 1611 1612 28
1290 1611 1613 28
1291 1611 1614 28
1292 1611 1615 28
1293 1616 1617 28
1294 1616 1618 28
1295 1616 1619 28
1296 1616 1620 28
1297 1621 1622 28
1298 1621 1623 28
1299 1621 1624 28
1300 1621 1625 28
1301 1626 1627 28
1302 1626 1628 28
1303 1626 1629 28
1304 1626 1630 28
1305 1631 1632 28
1306 1631 1633 28
1307 1631 1634 28
1308 1631 1635 28
1309 1636 1637 28
1310 1636 1638 28
1311 1636 1639 28
1312 1636 1640 28
1313 1641 1642 28
1314 1641 1643 28
1315 1641 1644 28
1316 1641 1645 28
1317 1646 1647 28
1318 1646 1648 28
1319 1646 1649 28
1320 1646 1650 28
1321 1651 1652 28
1322 1651 1653 28
1323 1651 1654 28
1324 1651 1655 28
1325 1656 1657 28
1326 1656 1658 28
1327 1656 1659 28
1328 1656 1660 28
1329 1661 1662 28
1330 1661 1663 28
1331 1661 1664 28
1332 1661 1665 28
1333 1666 1667 28
1334 1666 1668 28
1335 1666 1669 28
1336 1666 1670 28
1337 1671 1672 28
1338 1671 1673 28
1339 1671 1674 28
1340 1671 1675 28
1341 1676 1677 28
1342 1676 1678 28
1343 1676 1679 28
1344 1676 1680 28
1345 1681 1682 28
1346 1681 1683 28
1347 1681 1684 28
1348 1681 1685 28
1349 1686 1687 28
1350 1686 1688 28
1351 1686 1689 28
1352 1686 1690 28
1353 1691 1692 28
1354 1691 1693 28
1355 1691 1694 28
1356 1691 1695 28
1357 1696 1697 28
1358 1696 1698 28
1359 1696 1699 28
1360 1696 1700 28
1361 1701 1702 28
1362 1701 1703 28
1363 1701 1704 28
1364 1701 1705 28
1365 1706 1707 28
1366 1706 1708 28
1367 1706 1709 28
1368 1706 1710 28
1369 1711 1712 28
1370 1711 1713 28
1371 1711 1714 28
1372 1711 1715 28
1373 1716 1717 28
1374 1716 1718 28
1375 1716 1719 28
1376 1716 1720 28
1377 1721 1722 28
1378 1721 1723 28
1379 1721 1724 28
1380 1721 1725 28
1381 1726 1727 28
1382 1726 1728 28
1383 1726 1729 28
1384 1726 1730 28
1385 1731 1732 28
1386 1731 1733 28
1387 1731 1734 28
1388 1731 1735 28
1389 1736 1737 28
1390 1736 1738 28
1391 1736 1739 28
1392 1736 1740 28
1393 1741 1742 28
1394 1741 1743 28
1395 1741 1744 28
1396 1741 1745 28
1397 1746 1747 28
1398 1746 1748 28
1399 1746 1749 28
1400 1746 1750 28
1401 1751 1752 28
1402 1751 1753 28
1403 1751 1754 28
1404 1751 1755 28
1405 1756 1757 28
1406 1756 1758 28
1407 1756 1759 28
1408 1756 1760 28
1409 1761 1762 28
1410 1761 1763 28
1411 1761 1764 28
1412 1761 1765 28
1413 1766 1767 28
1414 1766 1768 28
1415 1766 1769 28
1416 1766 1770 28
1417 1771 1772 28
1418 1771 1773 28
1419 1771 1774 28
1420 1771 1775 28
1421 1776 1777 28
1422 1776 1778 28
1423 1776 1779 28
1424 1776 1780 28
1425 1781 1782 28
1426 1781 1783 28
1427 1781 1784 28
1428 1781 1785 28
1429 1786 1787 28
1430 1786 1788 28
1431 1786 1789 28
1432 1786 1790 28
1433 1791 1792 28
1434 1791 1793 28
1435 1791 1794 28
1436 1791 1795 28
1437 1796 1797 28
1438 1796 1798 28
1439 1796 1799 28
1440 1796 1800 28
1441 1801 1802 28
1442 1801 1803 28
1443 1801 1804 28
1444 1801 1805 28
1445 1806 1807 28
1446 1806 1808 28
1447 1806 1809 28
1448 1806 1810 28
1449 1811 1812 28
1450 1811 1813 28
1451 1811 1814 28
1452 1811 1815 28
1453 1816 1817 28
1454 1816 1818 28
1455 1816 1819 28
1456 1816 1820 28
1457 1821 1822 28
1458 1821 1823 28
1459 1821 1824 28
1460 1821 1825 28
1461 1826 1827 28
1462 1826 1828 28
1463 1826 1829 28
1464 1826 1830 28
1465 1831 1832 28
1466 1831 1833 28
1467 1831 1834 28
1468 1831 1835 28
1469 1836 1837 28
1470 1836 1838 28
1471 1836 1839 28
1472 1836 1840 28
1473 1841 1842 28
1474 1841 1843 28
1475 1841 1844 28
1476 1841 1845 28
1477 1846 1847 28
1478 1846 1848 28
1479 1846 1849 28
1480 1846 1850 28
1481 1851 1852 28
1482 1851 1853 28
1483 1851 1854 28
1484 1851 1855 28
1485 1856 1857 28
1486 1856 1858 28
1487 1856 1859 28
1488 1856 1860 28
1489 1861 1862 28
1490 1861 1863 28
1491 1861 1864 28
1492 1861 1865 28
1493 1866 1867 28
1494 1866 1868 28
1495 1866 1869 28
1496 1866 1870 28
1497 1871 1872 28
1498 1871 1873 28
1499 1871 1874 28
1500 1871 1875 28
1501 1876 1877 28
1502 1876 1878 28
1503 1876 1879 28
1504 1876 1880 28
1505 1881 1882 28
1506 1881 1883 28
1507 1881 1884 28
1508 1881 1885 28
1509 1886 1887 28
1510 1886 1888 28
1511 1886 1889 28
1512 1886 1890 28
1513 1891 1892 28
1514 1891 1893 28
1515 1891 1894 28
1516 1891 1895 28
1517 1896 1897 28
1518 1896 1898 28
1519 1896 1899 28
1520 1896 1900 28
1521 1901 1902 28
1522 1901 1903 28
1523 1901 1904 28
1524 1901 1905 28
1525 1906 1907 28
1526 1906 1908 28
1527 1906 1909 28
1528 1906 1910 28
1529 1911 1912 28
1530 1911 1913 28
1531 1911 1914 28
1532 1911 1915 28
1533 1916 1917 28
1534 1916 1918 28
1535 1916 1919 28
1536 1916 1920 28
1537 1921 1922 28
1538 1921 1923 28
1539 1921 1924 28
1540 1921 1925 28
1541 1926 1927 28
1542 1926 1928 28
1543 1926 1929 28
1544 1926 1930 28
1545 1931 1932 28
1546 1931 1933 28
1547 1931 1934 28
1548 1931 1935 28
1549 1936 1937 28
1550 1936 1938 28
1551 1936 1939 28
1552 1936 1940 28
1553 1941 1942 28
1554 1941 1943 28
1555 1941 1944 28
1556 1941 1945 28
1557 1946 1947 28
1558 1946 1948 28
1559 1946 1949 28
1560 1946 1950 28
1561 1951 1952 28
1562 1951 1953 28
1563 1951 1954 28
1564 1951 1955 28
1565 1956 1957 28
1566 1956 1958 28
1567 1956 1959 28
1568 1956 1960 28
1569 1961 1962 28
1570 1961 1963 28
1571 1961 1964 28
1572 1961 1965 28
1573 1966 1967 28
1574 1966 1968 28
1575 1966 1969 28
1576 1966 1970 28
1577 1971 1972 28
1578 1971 1973 28
1579 1971 1974 28
1580 1971 1975 28
1581 1976 1977 28
1582 1976 1978 28
1583 1976 1979 28
1584 1976 1980 28
1585 1981 1982 28
1586 1981 1983 28
1587 1981 1984 28
1588 1981 1985 28
1589 1986 1987 28
1590 1986 1988 28
1591 1986 1989 28
1592 1986 1990 28
1593 1991 1992 28
1594 1991 1993 28
1595 1991 1994 28
1596 1991 1995 28
1597 1996 1997 28
1598 1996 1998 28
1599 1996 1999 28
1600 1996 2000 28
1601 2001 2002 28
1602 2001 2003 28
1603 2001 2004 28
1604 2001 2005 28
1605 2006 2007 28
1606 2006 2008 28
1607 2006 2009 28
1608 2006 2010 28
1609 2011 2012 28
1610 2011 2013 28
1611 2011 2014 28
1612 2011 2015 28
1613 2016 2017 28
1614 2016 2018 28
1615 2016 2019 28
1616 2016 2020 28
1617 2021 2022 28
1618 2021 2023 28
1619 2021 2024 28
1620 2021 2025 28
1621 2026 2027 28
1622 2026 2028 28
1623 2026 2029 28
1624 2026 2030 28
1625 2031 2032 28
1626 2031 2033 28
1627 2031 2034 28
1628 2031 2035 28
1629 2036 2037 28
1630 2036 2038 28
1631 2036 2039 28
1632 2036 2040 28
1633 2041 2042 28
1634 2041 2043 28
1635 2041 2044 28
1636 2041 2045 28
1637 2046 2047 28
1638 2046 2048 28
1639 2046 2049 28
1640 2046 2050 28
1641 2051 2052 28
1642 2051 2053 28
1643 2051 2054 28
1644 2051 2055 28
1645 2056 2057 28
1646 2056 2058 28
1647 2056 2059 28
1648 2056 2060 28
1649 2061 2062 28
1650 2061 2063 28
1651 2061 2064 28
1652 2061 2065 28
1653 2066 2067 28
1654 2066 2068 28
1655 2066 2069 28
1656 2066 2070 28
1657 2071 2072 28
1658 2071 2073 28
1659 2071 2074 28
1660 2071 2075 28
1661 2076 2077 28
1662 2076 2078 28
1663 2076 2079 28
1664 2076 2080 28
1665 2081 2082 28
1666 2081 2083 28
1667 2081 2084 28
1668 2081 2085 28
1669 2086 2087 28
1670 2086 2088 28
1671 2086 2089 28
1672 2086 2090 28
1673 2091 2092 28
1674 2091 2093 28
1675 2091 2094 28
1676 2091 2095 28
1677 2096 2097 28
1678 2096 2098 28
1679 2096 2099 28
1680 2096 2100 28
1681 2101 2102 28
1682 2101 2103 28
1683 2101 2104 28
1684 2101 2105 28
1685 2106 2107 28
1686 2106 2108 28
1687 2106 2109 28
1688 2106 2110 28
1689 2111 2112 28
1690 2111 2113 28
1691 2111 2114 28
1692 2111 2115 28
1693 2116 2117 28
1694 2116 2118 28
1695 2116 2119 28
1696 2116 2120 28
1697 2121 2122 28
1698 2121 2123 28
1699 2121 2124 28
1700 2121 2125 28
1701 2126 2127 28
1702 2126 2128 28
1703 2126 2129 28
1704 2126 2130 28
1705 2131 2132 28
1706 2131 2133 28
1707 2131 2134 28
1708 2131 2135 28
1709 2136 2137 28
1710 2136 2138 28
1711 2136 2139 28
1712 2136 2140 28
1713 2141 2142 28
1714 2141 2143 28
1715 2141 2144 28
1716 2141 2145 28
1717 2146 2147 28
1718 2146 2148 28
1719 2146 2149 28
1720 2146 2150 28
1721 2151 2152 28
1722 2151 2153 28
1723 2151 2154 28
1724 2151 2155 28
1725 2156 2157 28
1726 2156 2158 28
1727 2156 2159 28
1728 2156 2160 28
1729 2161 2162 28
1730 2161 2163 28
1731 2161 2164 28
1732 2161 2165 28
1733 2166 2167 28
1734 2166 2168 28
1735 2166 2169 28
1736 2166 2170 28
1737 2171 2172 28
1738 2171 2173 28
1739 2171 2174 28
1740 2171 2175 28
1741 2176 2177 28
1742 2176 2178 28
1743 2176 2179 28
1744 2176 2180 28
1745 2181 2182 28
1746 2181 2183 28
1747 2181 2184 28
1748 2181 2185 28
1749 2186 2187 28
1750 2186 2188 28
1751 2186 2189 28
1752 2186 2190 28
1753 2191 2192 28
1754 2191 2193 28
1755 2191 2194 28
1756 2191 2195 28
1757 2196 2197 28
1758 2196 2198 28
1759 2196 2199 28
1760 2196 2200 28
1761 2201 2202 28
1762 2201 2203 28
1763 2201 2204 28
1764 2201 2205 28
1765 2206 2207 28
1766 2206 2208 28
1767 2206 2209 28
1768 2206 2210 28
1769 2211 2212 28
1770 2211 2213 28
1771 2211 2214 28
1772 2211 2215 28
1773 2216 2217 28
1774 2216 2218 28
1775 2216 2219 28
1776 2216 2220 28
1777 2221 2222 28
1778 2221 2223 28
1779 2221 2224 28
1780 2221 2225 28
1781 2226 2227 28
1782 2226 2228 28
1783 2226 2229 28
1784 2226 2230 28
1785 2231 2232 28
1786 2231 2233 28
1787 2231 2234 28
1788 2231 2235 28
1789 2236 2237 28
1790 2236 2238 28
1791 2236 2239 28
1792 2236 2240 28
1793 2241 2242 28
1794 2241 2243 28
1795 2241 2244 28
1796 2241 2245 28
1797 2246 2247 28
1798 2246 2248 28
1799 2246 2249 28
1800 2246 2250 28
1801 2251 2252 28
1802 2251 2253 28
1803 2251 2254 28
1804 2251 2255 28
1805 2256 2257 28
1806 2256 2258 28
1807 2256 2259 28
1808 2256 2260 28
1809 2261 2262 28
1810 2261 2263 28
1811 2261 2264 28
1812 2261 2265 28
1813 2266 2267 28
1814 2266 2268 28
1815 2266 2269 28
1816 2266 2270 28
1817 2271 2272 28
1818 2271 2273 28
1819 2271 2274 28
1820 2271 2275 28
1821 2276 2277 28
1822 2276 2278 28
1823 2276 2279 28
1824 2276 2280 28
1825 2281 2282 28
1826 2281 2283 28
1827 2281 2284 28
1828 2281 2285 28
1829 2286 2287 28
1830 2286 2288 28
1831 2286 2289 28
1832 2286 2290 28
1833 2291 2292 28
1834 2291 2293 28
1835 2291 2294 28
1836 2291 2295 28
1837 2296 2297 28
1838 2296 2298 28
1839 2296 2299 28
1840 2296 2300 28
1841 2301 2302 28
1842 2301 2303 28
1843 2301 2304 28
1844 2301 2305 28
1845 2306 2307 28
1846 2306 2308 28
1847 2306 2309 28
1848 2306 2310 28
1849 2311 2312 28
1850 2311 2313 28
1851 2311 2314 28
1852 2311 2315 28
1853 2316 2317 28
1854 2316 2318 28
1855 2316 2319 28
1856 2316 2320 28
1857 2321 2322 28
1858 2321 2323 28
1859 2321 2324 28
1860 2321 2325 28
1861 2326 2327 28
1862 2326 2328 28
1863 2326 2329 28
1864 2326 2330 28
1865 2331 2332 28
1866 2331 2333 28
1867 2331 2334 28
1868 2331 2335 28
1869 2336 2337 28
1870 2336 2338 28
1871 2336 2339 28
1872 2336 2340 28
1873 2341 2342 28
1874 2341 2343 28
1875 2341 2344 28
1876 2341 2345 28
1877 2346 2347 28
1878 2346 2348 28
1879 2346 2349 28
1880 2346 2350 28
1881 2351 2352 28
1882 2351 2353 28
1883 2351 2354 28
1884 2351 2355 28
1885 2356 2357 28
1886 2356 2358 28
1887 2356 2359 28
1888 2356 2360 28
1889 2361 2362 28
1890 2361 2363 28
1891 2361 2364 28
1892 2361 2365 28
1893 2366 2367 28
1894 2366 2368 28
1895 2366 2369 28
1896 2366 2370 28
1897 2371 2372 28
1898 2371 2373 28
1899 2371 2374 28
1900 2371 2375 28
1901 2376 2377 28
1902 2376 2378 28
1903 2376 2379 28
1904 2376 2380 28
1905 2381 2382 28
1906 2381 2383 28
1907 2381 2384 28
1908 2381 2385 28
1909 2386 2387 28
1910 2386 2388 28
1911 2386 2389 28
1912 2386 2390 28
1913 2391 2392 28
1914 2391 2393 28
1915 2391 2394 28
1916 2391 2395 28
1917 2396 2397 28
1918 2396 2398 28
1919 2396 2399 28
1920 2396 2400 28
1921 2401 2402 28
1922 2401 2403 28
1923 2401 2404 28
1924 2401 2405 28
1925 2406 2407 28
1926 2406 2408 28
1927 2406 2409 28
1928 2406 2410 28
1929 2411 2412 28
1930 2411 2413 28
1931 2411 2414 28
1932 2411 2415 28
1933 2416 2417 28
1934 2416 2418 28
1935 2416 2419 28
1936 2416 2420 28
1937 2421 2422 28
1938 2421 2423 28
1939 2421 2424 28
1940 2421 2425 28
1941 2426 2427 28
1942 2426 2428 28
1943 2426 2429 28
1944 2426 2430 28
1945 2431 2432 28
1946 2431 2433 28
1947 2431 2434 28
1948 2431 2435 28
1949 2436 2437 28
1950 2436 2438 28
1951 2436 2439 28
1952 2436 2440 28
1953 2441 2442 28
1954 2441 2443 28
1955 2441 2444 28
1956 2441 2445 28
1957 2446 2447 28
1958 2446 2448 28
1959 2446 2449 28
1960 2446 2450 28
1961 2451 2452 28
1962 2451 2453 28
1963 2451 2454 28
1964 2451 2455 28
1965 2456 2457 28
1966 2456 2458 28
1967 2456 2459 28
1968 2456 2460 28
1969 2461 2462 28
1970 2461 2463 28
1971 2461 2464 28
1972 2461 2465 28
1973 2466 2467 28
1974 2466 2468 28
1975 2466 2469 28
1976 2466 2470 28
1977 2471 2472 28
1978 2471 2473 28
1979 2471 2474 28
1980 2471 2475 28
1981 2476 2477 28
1982 2476 2478 28
1983 2476 2479 28
1984 2476 2480 28
1985 2481 2482 28
1986 2481 2483 28
1987 2481 2484 28
1988 2481 2485 28
1989 2486 2487 28
1990 2486 2488 28
1991 2486 2489 28
1992 2486 2490 28
1993 2491 2492 28
1994 2491 2493 28
1995 2491 2494 28
1996 2491 2495 28
1997 2496 2497 28
1998 2496 2498 28
1999 2496 2499 28
2000 2496 2500 28
2001 2501 2502 28
2002 2501 2503 28
2003 2501 2504 28
2004 2501 2505 28
2005 2506 2507 28
2006 2506 2508 28
2007 2506 2509 28
2008 2506 2510 28
2009 2511 2512 28
2010 2511 2513 28
2011 2511 2514 28
2012 2511 2515 28
2013 2516 2517 28
2014 2516 2518 28
2015 2516 2519 28
2016 2516 2520 28
2017 2521 2522 28
2018 2521 2523 28
2019 2521 2524 28
2020 2521 2525 28
2021 2526 2527 28
2022 2526 2528 28
2023 2526 2529 28
2024 2526 2530 28
2025 2531 2532 28
2026 2531 2533 28
2027 2531 2534 28
2028 2531 2535 28
2029 2536 2537 28
2030 2536 2538 28
2031 2536 2539 28
2032 2536 2540 28
2033 2541 2542 28
2034 2541 2543 28
2035 2541 2544 28
2036 2541 2545 28
2037 2546 2547 28
2038 2546 2548 28
2039 2546 2549 28
2040 2546 2550 28
2041 2551 2552 28
2042 2551 2553 28
2043 2551 2554 28
2044 2551 2555 28
2045 2556 2557 28
2046 2556 2558 28
2047 2556 2559 28
2048 2556 2560 28
2049 2561 2562 28
2050 2561 2563 28
2051 2561 2564 28
2052 2561 2565 28
2053 2566 2567 28
2054 2566 2568 28
2055 2566 2569 28
2056 2566 2570 28
2057 2571 2572 28
2058 2571 2573 28
2059 2571 2574 28
2060 2571 2575 28
2061 2576 2577 28
2062 2576 2578 28
2063 2576 2579 28
2064 2576 2580 28
2065 2581 2582 28
2066 2581 2583 28
2067 2581 2584 28
2068 2581 2585 28
2069 2586 2587 28
2070 2586 2588 28
2071 2586 2589 28
2072 2586 2590 28
2073 2591 2592 28
2074 2591 2593 28
2075 2591 2594 28
2076 2591 2595 28
2077 2596 2597 28
2078 2596 2598 28
2079 2596 2599 28
2080 2596 2600 28
2081 2601 2602 28
2082 2601 2603 28
2083 2601 2604 28
2084 2601 2605 28
2085 2606 2607 28
2086 2606 2608 28
2087 2606 2609 28
2088 2606 2610 28
2089 2611 2612 28
2090 2611 2613 28
2091 2611 2614 28
2092 2611 2615 28
2093 2616 2617 28
2094 2616 2618 28
2095 2616 2619 28
2096 2616 2620 28
2097 2621 2622 28
2098 2621 2623 28
2099 2621 2624 28
2100 2621 2625 28
2101 2626 2627 28
2102 2626 2628 28
2103 2626 2629 28
2104 2626 2630 28
2105 2631 2632 28
2106 2631 2633 28
2107 2631 2634 28
2108 2631 2635 28
2109 2636 2637 28
2110 2636 2638 28
2111 2636 2639 28
2112 2636 2640 28
2113 2641 2642 28
2114 2641 2643 28
2115 2641 2644 28
2116 2641 2645 28
2117 2646 2647 28
2118 2646 2648 28
2119 2646 2649 28
2120 2646 2650 28
2121 2651 2652 28
2122 2651 2653 28
2123 2651 2654 28
2124 2651 2655 28
2125 2656 2657 28
2126 2656 2658 28
2127 2656 2659 28
2128 2656 2660 28
2129 2661 2662 28
2130 2661 2663 28
2131 2661 2664 28
2132 2661 2665 28
2133 2666 2667 28
2134 2666 2668 28
2135 2666 2669 28
2136 2666 2670 28
2137 2671 2672 28
2138 2671 2673 28
2139 2671 2674 28
2140 2671 2675 28
2141 2676 2677 28
2142 2676 2678 28
2143 2676 2679 28
2144 2676 2680 28
2145 2681 2682 28
2146 2681 2683 28
2147 2681 2684 28
2148 2681 2685 28
2149 2686 2687 28
2150 2686 2688 28
2151 2686 2689 28
2152 2686 2690 28
2153 2691 2692 28
2154 2691 2693 28
2155 2691 2694 28
2156 2691 2695 28
2157 2696 2697 28
2158 2696 2698 28
2159 2696 2699 28
2160 2696 2700 28
2161 2701 2702 28
2162 2701 2703 28
2163 2701 2704 28
2164 2701 2705 28
2165 2706 2707 28
2166 2706 2708 28
2167 2706 2709 28
2168 2706 2710 28
2169 2711 2712 28
2170 2711 2713 28
2171 2711 2714 28
2172 2711 2715 28
2173 2716 2717 28
2174 2716 2718 28
2175 2716 2719 28
2176 2716 2720 28
2177 2721 2722 28
2178 2721 2723 28
2179 2721 2724 28
2180 2721 2725 28
2181 2726 2727 28
2182 2726 2728 28
2183 2726 2729 28
2184 2726 2730 28
2185 2731 2732 28
2186 2731 2733 28
2187 2731 2734 28
2188 2731 2735 28
2189 2736 2737 28
2190 2736 2738 28
2191 2736 2739 28
2192 2736 2740 28
2193 2741 2742 28
2194 2741 2743 28
2195 2741 2744 28
2196 2741 2745 28
2197 2746 2747 28
2198 2746 2748 28
2199 2746 2749 28
2200 2746 2750 28
2201 2751 2752 28
2202 2751 2753 28
2203 2751 2754 28
2204 2751 2755 28
2205 2756 2757 28
2206 2756 2758 28
2207 2756 2759 28
2208 2756 2760 28
2209 2761 2762 28
2210 2761 2763 28
2211 2761 2764 28
2212 2761 2765 28
2213 2766 2767 28
2214 2766 2768 28
2215 2766 2769 28
2216 2766 2770 28
2217 2771 2772 28
2218 2771 2773 28
2219 2771 2774 28
2220 2771 2775 28
2221 2776 2777 28
2222 2776 2778 28
2223 2776 2779 28
2224 2776 2780 28
2225 2781 2782 28
2226 2781 2783 28
2227 2781 2784 28
2228 2781 2785 28
2229 2786 2787 28
2230 2786 2788 28
2231 2786 2789 28
2232 2786 2790 28
2233 2791 2792 28
2234 2791 2793 28
2235 2791 2794 28
2236 2791 2795 28
2237 2796 2797 28
2238 2796 2798 28
2239 2796 2799 28
2240 2796 2800 28
2241 2801 2802 28
2242 2801 2803 28
2243 2801 2804 28
2244 2801 2805 28
2245 2806 2807 28
2246 2806 2808 28
2247 2806 2809 28
2248 2806 2810 28
2249 2811 2812 28
2250 2811 2813 28
2251 2811 2814 28
2252 2811 2815 28
2253 2816 2817 28
2254 2816 2818 28
2255 2816 2819 28
2256 2816 2820 28
2257 2821 2822 28
2258 2821 2823 28
2259 2821 2824 28
2260 2821 2825 28
2261 2826 2827 28
2262 2826 2828 28
2263 2826 2829 28
2264 2826 2830 28
2265 2831 2832 28
2266 2831 2833 28
2267 2831 2834 28
2268 2831 2835 28
2269 2836 2837 28
2270 2836 2838 28
2271 2836 2839 28
2272 2836 2840 28
2273 2841 2842 28
2274 2841 2843 28
2275 2841 2844 28
2276 2841 2845 28
2277 2846 2847 28
2278 2846 2848 28
2279 2846 2849 28
2280 2846 2850 28
2281 2851 2852 28
2282 2851 2853 28
2283 2851 2854 28
2284 2851 2855 28
2285 2856 2857 28
2286 2856 2858 28
2287 2856 2859 28
2288 2856 2860 28
2289 2861 2862 28
2290 2861 2863 28
2291 2861 2864 28
2292 2861 2865 28
2293 2866 2867 28
2294 2866 2868 28
2295 2866 2869 28
2296 2866 2870 28
2297 2871 2872 28
2298 2871 2873 28
2299 2871 2874 28
2300 2871 2875 28
2301 2876 2877 28
2302 2876 2878 28
2303 2876 2879 28
2304 2876 2880 28
2305 2881 2882 28
2306 2881 2883 28
2307 2881 2884 28
2308 2881 2885 28
2309 2886 2887 28
2310 2886 2888 28
2311 2886 2889 28
2312 2886 2890 28
2313 2891 2892 28
2314 2891 2893 28
2315 2891 2894 28
2316 2891 2895 28
2317 2896 2897 28
2318 2896 2898 28
2319 2896 2899 28
2320 2896 2900 28
2321 2901 2902 28
2322 2901 2903 28
2323 2901 2904 28
2324 2901 2905 28
2325 2906 2907 28
2326 2906 2908 28
2327 2906 2909 28
2328 2906 2910 28
2329 2911 2912 28
2330 2911 2913 28
2331 2911 2914 28
2332 2911 2915 28
2333 2916 2917 28
2334 2916 2918 28
2335 2916 2919 28
2336 2916 2920 28
2337 2921 2922 28
2338 2921 2923 28
2339 2921 2924 28
2340 2921 2925 28
2341 2926 2927 28
2342 2926 2928 28
2343 2926 2929 28
2344 2926 2930 28
2345 2931 2932 28
2346 2931 2933 28
2347 2931 2934 28
2348 2931 2935 28
2349 2936 2937 28
2350 2936 2938 28
2351 2936 2939 28
2352 2936 2940 28
2353 2941 2942 28
2354 2941 2943 28
2355 2941 2944 28
2356 2941 2945 28
2357 2946 2947 28
2358 2946 2948 28
2359 2946 2949 28
2360 2946 2950 28
2361 2951 2952 28
2362 2951 2953 28
2363 2951 2954 28
2364 2951 2955 28
2365 2956 2957 28
2366 2956 2958 28
2367 2956 2959 28
2368 2956 2960 28
2369 2961 2962 28
2370 2961 2963 28
2371 2961 2964 28
2372 2961 2965 28
2373 2966 2967 28
2374 2966 2968 28
2375 2966 2969 28
2376 2966 2970 28
2377 2971 2972 28
2378 2971 2973 28
2379 2971 2974 28
2380 2971 2975 28
2381 2976 2977 28
2382 2976 2978 28
2383 2976 2979 28
2384 2976 2980 28
2385 2981 2982 28
2386 2981 2983 28
2387 2981 2984 28
2388 2981 2985 28
2389 2986 2987 28
2390 2986 2988 28
2391 2986 2989 28
2392 2986 2990 28
2393 2991 2992 28
2394 2991 2993 28
2395 2991 2994 28
2396 2991 2995 28
2397 2996 2997 28
2398 2996 2998 28
2399 2996 2999 28
2400 2996 3000 28
2401 3001 3002 28
2402 3001 3003 28
2403 3001 3004 28
2404 3001 3005 28
2405 3006 3007 28
2406 3006 3008 28
2407 3006 3009 28
2408 3006 3010 28
2409 3011 3012 28
2410 3011 3013 28
2411 3011 3014 28
2412 3011 3015 28
2413 3016 3017 28
2414 3016 3018 28
2415 3016 3019 28
2416 3016 3020 28
2417 3021 3022 28
2418 3021 3023 28
2419 3021 3024 28
2420 3021 3025 28
2421 3026 3027 28
2422 3026 3028 28
2423 3026 3029 28
2424 3026 3030 28
2425 3031 3032 28
2426 3031 3033 28
2427 3031 3034 28
2428 3031 3035 28
2429 3036 3037 28
2430 3036 3038 28
2431 3036 3039 28
2432 3036 3040 28
2433 3041 3042 28
2434 3041 3043 28
2435 3041 3044 28
2436 3041 3045 28
2437 3046 3047 28
2438 3046 3048 28
2439 3046 3049 28
2440 3046 3050 28
2441 3051 3052 28
2442 3051 3053 28
2443 3051 3054 28
2444 3051 3055 28
2445 3056 3057 28
2446 3056 3058 28
2447 3056 3059 28
2448 3056 3060 28
2449 3061 3062 28
2450 3061 3063 28
2451 3061 3064 28
2452 3061 3065 28
2453 3066 3067 28
2454 3066 3068 28
2455 3066 3069 28
2456 3066 3070 28
2457 3071 3072 28
2458 3071 3073 28
2459 3071 3074 28
2460 3071 3075 28
2461 3076 3077 28
2462 3076 3078 28
2463 3076 3079 28
2464 3076 3080 28
2465 3081 3082 28
2466 3081 3083 28
2467 3081 3084 28
2468 3081 3085 28
2469 3086 3087 28
2470 3086 3088 28
2471 3086 3089 28
2472 3086 3090 28
2473 3091 3092 28
2474 3091 3093 28
2475 3091 3094 28
2476 3091 3095 28
2477 3096 3097 28
2478 3096 3098 28
2479 3096 3099 28
2480 3096 3100 28
2481 3101 3102 28
2482 3101 3103 28
2483 3101 3104 28
2484 3101 3105 28
2485 3106 3107 28
2486 3106 3108 28
2487 3106 3109 28
2488 3106 3110 28
2489 3111 3112 28
2490 3111 3113 28
2491 3111 3114 28
2492 3111 3115 28
2493 3116 3117 28
2494 3116 3118 28
2495 3116 3119 28
2496 3116 3120 28
2497 3121 3122 28
2498 3121 3123 28
2499 3121 3124 28
2500 3121 3125 28
2501 3126 3127 28
2502 3126 3128 28
2503 3126 3129 28
2504 3126 3130 28
2505 3131 3132 28
2506 3131 3133 28
2507 3131 3134 28
2508 3131 3135 28
2509 3136 3137 28
2510 3136 3138 28
2511 3136 3139 28
2512 3136 3140 28
2513 3141 3142 28
2514 3141 3143 28
2515 3141 3144 28
2516 3141 3145 28
2517 3146 3147 28
2518 3146 3148 28
2519 3146 3149 28
2520 3146 3150 28
2521 3151 3152 28
2522 3151 3153 28
2523 3151 3154 28
2524 3151 3155 28
2525 3156 3157 28
2526 3156 3158 28
2527 3156 3159 28
2528 3156 3160 28
2529 3161 3162 28
2530 3161 3163 28
2531 3161 3164 28
2532 3161 3165 28
2533 3166 3167 28
2534 3166 3168 28
2535 3166 3169 28
2536 3166 3170 28
2537 3171 3172 28
2538 3171 3173 28
2539 3171 3174 28
2540 3171 3175 28
2541 3176 3177 28
2542 3176 3178 28
2543 3176 3179 28
2544 3176 3180 28
2545 3181 3182 28
2546 3181 3183 28
2547 3181 3184 28
2548 3181 3185 28
2549 3186 3187 28
2550 3186 3188 28
2551 3186 3189 28
2552 3186 3190 28
2553 3191 3192 28
2554 3191 3193 28
2555 3191 3194 28
2556 3191 3195 28
2557 3196 3197 28
2558 3196 3198 28
2559 3196 3199 28
2560 3196 3200 28
2561 3201 3202 28
2562 3201 3203 28
2563 3201 3204 28
2564 3201 3205 28
2565 3206 3207 28
2566 3206 3208 28
2567 3206 3209 28
2568 3206 3210 28
2569 3211 3212 28
2570 3211 3213 28
2571 3211 3214 28
2572 3211 3215 28
2573 3216 3217 28
2574 3216 3218 28
2575 3216 3219 28
2576 3216 3220 28
2577 3221 3222 28
2578 3221 3223 28
2579 3221 3224 28
2580 3221 3225 28
2581 3226 3227 28
2582 3226 3228 28
2583 3226 3229 28
2584 3226 3230 28
2585 3231 3232 28
2586 3231 3233 28
2587 3231 3234 28
2588 3231 3235 28
2589 3236 3237 28
2590 3236 3238 28
2591 3236 3239 28
2592 3236 3240 28
2593 3241 3242 28
2594 3241 3243 28
2595 3241 3244 28
2596 3241 3245 28
2597 3246 3247 28
2598 3246 3248 28
2599 3246 3249 28
2600 3246 3250 28
2601 3251 3252 28
2602 3251 3253 28
2603 3251 3254 28
2604 3251 3255 28
2605 3256 3257 28
2606 3256 3258 28
2607 3256 3259 28
2608 3256 3260 28
2609 3261 3262 28
2610 3261 3263 28
2611 3261 3264 28
2612 3261 3265 28
2613 3266 3267 28
2614 3266 3268 28
2615 3266 3269 28
2616 3266 3270 28
2617 3271 3272 28
2618 3271 3273 28
2619 3271 3274 28
2620 3271 3275 28
2621 3276 3277 28
2622 3276 3278 28
2623 3276 3279 28
2624 3276 3280 28
2625 3281 3282 28
2626 3281 3283 28
2627 3281 3284 28
2628 3281 3285 28
2629 3286 3287 28
2630 3286 3288 28
2631 3286 3289 28
2632 3286 3290 28
2633 3291 3292 28
2634 3291 3293 28
2635 3291 3294 28
2636 3291 3295 28
2637 3296 3297 28
2638 3296 3298 28
2639 3296 3299 28
2640 3296 3300 28
2641 3301 3302 28
2642 3301 3303 28
2643 3301 3304 28
2644 3301 3305 28
2645 3306 3307 28
2646 3306 3308 28
2647 3306 3309 28
2648 3306 3310 28
2649 3311 3312 28
2650 3311 3313 28
2651 3311 3314 28
2652 3311 3315 28
2653 3316 3317 28
2654 3316 3318 28
2655 3316 3319 28
2656 3316 3320 28
2657 3321 3322 28
2658 3321 3323 28
2659 3321 3324 28
2660 3321 3325 28
2661 3326 3327 28
2662 3326 3328 28
2663 3326 3329 28
2664 3326 3330 28
2665 3331 3332 28
2666 3331 3333 28
2667 3331 3334 28
2668 3331 3335 28
2669 3336 3337 28
2670 3336 3338 28
2671 3336 3339 28
2672 3336 3340 28
2673 3341 3342 28
2674 3341 3343 28
2675 3341 3344 28
2676 3341 3345 28
2677 3346 3347 28
2678 3346 3348 28
2679 3346 3349 28
2680 3346 3350 28
2681 3351 3352 28
2682 3351 3353 28
2683 3351 3354 28
2684 3351 3355 28
2685 3356 3357 28
2686 3356 3358 28
2687 3356 3359 28
2688 3356 3360 28
2689 3361 3362 28
2690 3361 3363 28
2691 3361 3364 28
2692 3361 3365 28
2693 3366 3367 28
2694 3366 3368 28
2695 3366 3369 28
2696 3366 3370 28
2697 3371 3372 28
2698 3371 3373 28
2699 3371 3374 28
2700 3371 3375 28
2701 3376 3377 28
2702 3376 3378 28
2703 3376 3379 28
2704 3376 3380 28
2705 3381 3382 28
2706 3381 3383 28
2707 3381 3384 28
2708 3381 3385 28
2709 3386 3387 28
2710 3386 3388 28
2711 3386 3389 28
2712 3386 3390 28
2713 3391 3392 28
2714 3391 3393 28
2715 3391 3394 28
2716 3391 3395 28
2717 3396 3397 28
2718 3396 3398 28
2719 3396 3399 28
2720 3396 3400 28
2721 3401 3402 28
2722 3401 3403 28
2723 3401 3404 28
2724 3401 3405 28
2725 3406 3407 28
2726 3406 3408 28
2727 3406 3409 28
2728 3406 3410 28
2729 3411 3412 28
2730 3411 3413 28
2731 3411 3414 28
2732 3411 3415 28
2733 3416 3417 28
2734 3416 3418 28
2735 3416 3419 28
2736 3416 3420 28
2737 3421 3422 28
2738 3421 3423 28
2739 3421 3424 28
2740 3421 3425 28
2741 3426 3427 28
2742 3426 3428 28
2743 3426 3429 28
2744 3426 3430 28
2745 3431 3432 28
2746 3431 3433 28
2747 3431 3434 28
2748 3431 3435 28
2749 3436 3437 28
2750 3436 3438 28
2751 3436 3439 28
2752 3436 3440 28
2753 3441 3442 28
2754 3441 3443 28
2755 3441 3444 28
2756 3441 3445 28
2757 3446 3447 28
2758 3446 3448 28
2759 3446 3449 28
2760 3446 3450 28
2761 3451 3452 28
2762 3451 3453 28
2763 3451 3454 28
2764 3451 3455 28
2765 3456 3457 28
2766 3456 3458 28
2767 3456 3459 28
2768 3456 3460 28
2769 3461 3462 28
2770 3461 3463 28
2771 3461 3464 28
2772 3461 3465 28
2773 3466 3467 28
2774 3466 3468 28
2775 3466 3469 28
2776 3466 3470 28
2777 3471 3472 28
2778 3471 3473 28
2779 3471 3474 28
2780 3471 3475 28
2781 3476 3477 28
2782 3476 3478 28
2783 3476 3479 28
2784 3476 3480 28
2785 3481 3482 28
2786 3481 3483 28
2787 3481 3484 28
2788 3481 3485 28
2789 3486 3487 28
2790 3486 3488 28
2791 3486 3489 28
2792 3486 3490 28
2793 3491 3492 28
2794 3491 3493 28
2795 3491 3494 28
2796 3491 3495 28
2797 3496 3497 28
2798 3496 3498 28
2799 3496 3499 28
2800 3496 3500 28
2801 3501 3502 28
2802 3501 3503 28
2803 3501 3504 28
2804 3501 3505 28
2805 3506 3507 28
2806 3506 3508 28
2807 3506 3509 28
2808 3506 3510 28
2809 3511 3512 28
2810 3511 3513 28
2811 3511 3514 28
2812 3511 3515 28
2813 3516 3517 28
2814 3516 3518 28
2815 3516 3519 28
2816 3516 3520 28
2817 3521 3522 28
2818 3521 3523 28
2819 3521 3524 28
2820 3521 3525 28
2821 3526 3527 28
2822 3526 3528 28
2823 3526 3529 28
2824 3526 3530 28
2825 3531 3532 28
2826 3531 3533 28
2827 3531 3534 28
2828 3531 3535 28
2829 3536 3537 28
2830 3536 3538 28
2831 3536 3539 28
2832 3536 3540 28
2833 3541 3542 28
2834 3541 3543 28
2835 3541 3544 28
2836 3541 3545 28
2837 3546 3547 28
2838 3546 3548 28
2839 3546 3549 28
2840 3546 3550 28
2841 3551 3552 28
2842 3551 3553 28
2843 3551 3554 28
2844 3551 3555 28
2845 3556 3557 28
2846 3556 3558 28
2847 3556 3559 28
2848 3556 3560 28
2849 3561 3562 28
2850 3561 3563 28
2851 3561 3564 28
2852 3561 3565 28
2853 3566 3567 28
2854 3566 3568 28
2855 3566 3569 28
2856 3566 3570 28
2857 3571 3572 28
2858 3571 3573 28
2859 3571 3574 28
2860 3571 3575 28
2861 3576 3577 28
2862 3576 3578 28
2863 3576 3579 28
2864 3576 3580 28
2865 3581 3582 28
2866 3581 3583 28
2867 3581 3584 28
2868 3581 3585 28
2869 3586 3587 28
2870 3586 3588 28
2871 3586 3589 28
2872 3586 3590 28
2873 3591 3592 28
2874 3591 3593 28
2875 3591 3594 28
2876 3591 3595 28
2877 3596 3597 28
2878 3596 3598 28
2879 3596 3599 28
2880 3596 3600 28
2881 3601 3602 28
2882 3601 3603 28
2883 3601 3604 28
2884 3601 3605 28
2885 3606 3607 28
2886 3606 3608 28
2887 3606 3609 28
2888 3606 3610 28
2889 3611 3612 28
2890 3611 3613 28
2891 3611 3614 28
2892 3611 3615 28
2893 3616 3617 28
2894 3616 3618 28
2895 3616 3619 28
2896 3616 3620 28
2897 3621 3622 28
2898 3621 3623 28
2899 3621 3624 28
2900 3621 3625 28
2901 3626 3627 28
2902 3626 3628 28
2903 3626 3629 28
2904 3626 3630 28
2905 3631 3632 28
2906 3631 3633 28
2907 3631 3634 28
2908 3631 3635 28
2909 3636 3637 28
2910 3636 3638 28
2911 3636 3639 28
2912 3636 3640 28
2913 3641 3642 28
2914 3641 3643 28
2915 3641 3644 28
2916 3641 3645 28
2917 3646 3647 28
2918 3646 3648 28
2919 3646 3649 28
2920 3646 3650 28
2921 3651 3652 28
2922 3651 3653 28
2923 3651 3654 28
2924 3651 3655 28
2925 3656 3657 28
2926 3656 3658 28
2927 3656 3659 28
2928 3656 3660 28
2929 3661 3662 28
2930 3661 3663 28
2931 3661 3664 28
2932 3661 3665 28
2933 3666 3667 28
2934 3666 3668 28
2935 3666 3669 28
2936 3666 3670 28
2937 3671 3672 28
2938 3671 3673 28
2939 3671 3674 28
2940 3671 3675 28
2941 3676 3677 28
2942 3676 3678 28
2943 3676 3679 28
2944 3676 3680 28
2945 3681 3682 28
2946 3681 3683 28
2947 3681 3684 28
2948 3681 3685 28
2949 3686 3687 28
2950 3686 3688 28
2951 3686 3689 28
2952 3686 3690 28
2953 3691 3692 28
2954 3691 3693 28
2955 3691 3694 28
2956 3691 3695 28
2957 3696 3697 28
2958 3696 3698 28
2959 3696 3699 28
2960 3696 3700 28
2961 3701 3702 28
2962 3701 3703 28
2963 3701 3704 28
2964 3701 3705 28
2965 3706 3707 28
2966 3706 3708 28
2967 3706 3709 28
2968 3706 3710 28
2969 3711 3712 28
2970 3711 3713 28
2971 3711 3714 28
2972 3711 3715 28
2973 3716 3717 28
2974 3716 3718 28
2975 3716 3719 28
2976 3716 3720 28
2977 3721 3722 28
2978 3721 3723 28
2979 3721 3724 28
2980 3721 3725 28
2981 3726 3727 28
2982 3726 3728 28
2983 3726 3729 28
2984 3726 3730 28
2985 3731 3732 28
2986 3731 3733 28
2987 3731 3734 28
2988 3731 3735 28
2989 3736 3737 28
2990 3736 3738 28
2991 3736 3739 28
2992 3736 3740 28
2993 3741 3742 28
2994 3741 3743 28
2995 3741 3744 28
2996 3741 3745 28
2997 3746 3747 28
2998 3746 3748 28
2999 3746 3749 28
3000 3746 3750 28
3001 3751 3752 28
3002 3751 3753 28
3003 3751 3754 28
3004 3751 3755 28
3005 3756 3757 28
3006 3756 3758 28
3007 3756 3759 28
3008 3756 3760 28
3009 3761 3762 28
3010 3761 3763 28
3011 3761 3764 28
3012 3761 3765 28
3013 3766 3767 28
3014 3766 3768 28
3015 3766 3769 28
3016 3766 3770 28
3017 3771 3772 28
3018 3771 3773 28
3019 3771 3774 28
3020 3771 3775 28
3021 3776 3777 28
3022 3776 3778 28
3023 3776 3779 28
3024 3776 3780 28
3025 3781 3782 28
3026 3781 3783 28
3027 3781 3784 28
3028 3781 3785 28
3029 3786 3787 28
3030 3786 3788 28
3031 3786 3789 28
3032 3786 3790 28
3033 3791 3792 28
3034 3791 3793 28
3035 3791 3794 28
3036 3791 3795 28
3037 3796 3797 28
3038 3796 3798 28
3039 3796 3799 28
3040 3796 3800 28
3041 3801 3802 28
3042 3801 3803 28
3043 3801 3804 28
3044 3801 3805 28
3045 3806 3807 28
3046 3806 3808 28
3047 3806 3809 28
3048 3806 3810 28
3049 3811 3812 28
3050 3811 3813 28
3051 3811 3814 28
3052 3811 3815 28
3053 3816 3817 28
3054 3816 3818 28
3055 3816 3819 28
3056 3816 3820 28
3057 3821 3822 28
3058 3821 3823 28
3059 3821 3824 28
3060 3821 3825 28
3061 3826 3827 28
3062 3826 3828 28
3063 3826 3829 28
3064 3826 3830 28
3065 3831 3832 28
3066 3831 3833 28
3067 3831 3834 28
3068 3831 3835 28
3069 3836 3837 28
3070 3836 3838 28
3071 3836 3839 28
3072 3836 3840 28
3073 3841 3842 28
3074 3841 3843 28
3075 3841 3844 28
3076 3841 3845 28
3077 3846 3847 28
3078 3846 3848 28
3079 3846 3849 28
3080 3846 3850 28
3081 3851 3852 28
3082 3851 3853 28
3083 3851 3854 28
3084 3851 3855 28
3085 3856 3857 28
3086 3856 3858 28
3087 3856 3859 28
3088 3856 3860 28
3089 3861 3862 28
3090 3861 3863 28
3091 3861 3864 28
3092 3861 3865 28
3093 3866 3867 28
3094 3866 3868 28
3095 3866 3869 28
3096 3866 3870 28
3097 3871 3872 28
3098 3871 3873 28
3099 3871 3874 28
3100 3871 3875 28
3101 3876 3877 28
3102 3876 3878 28
3103 3876 3879 28
3104 3876 3880 28
3105 3881 3882 28
3106 3881 3883 28
3107 3881 3884 28
3108 3881 3885 28
3109 3886 3887 28
3110 3886 3888 28
3111 3886 3889 28
3112 3886 3890 28
3113 3891 3892 28
3114 3891 3893 28
3115 3891 3894 28
3116 3891 3895 28
3117 3896 3897 28
3118 3896 3898 28
3119 3896 3899 28
3120 3896 3900 28
3121 3901 3902 28
3122 3901 3903 28
3123 3901 3904 28
3124 3901 3905 28
3125 3906 3907 28
3126 3906 3908 28
3127 3906 3909 28
3128 3906 3910 28
3129 3911 3912 28
3130 3911 3913 28
3131 3911 3914 28
3132 3911 3915 28
3133 3916 3917 28
3134 3916 3918 28
3135 3916 3919 28
3136 3916 3920 28
3137 3921 3922 28
3138 3921 3923 28
3139 3921 3924 28
3140 3921 3925 28
3141 3926 3927 28
3142 3926 3928 28
3143 3926 3929 28
3144 3926 3930 28
3145 3931 3932 28
3146 3931 3933 28
3147 3931 3934 28
3148 3931 3935 28
3149 3936 3937 28
3150 3936 3938 28
3151 3936 3939 28
3152 3936 3940 28
3153 3941 3942 28
3154 3941 3943 28
3155 3941 3944 28
3156 3941 3945 28
3157 3946 3947 28
3158 3946 3948 28
3159 3946 3949 28
3160 3946 3950 28
3161 3951 3952 28
3162 3951 3953 28
3163 3951 3954 28
3164 3951 3955 28
3165 3956 3957 28
3166 3956 3958 28
3167 3956 3959 28
3168 3956 3960 28
3169 3961 3962 28
3170 3961 3963 28
3171 3961 3964 28
3172 3961 3965 28
3173 3966 3967 28
3174 3966 3968 28
3175 3966 3969 28
3176 3966 3970 28
3177 3971 3972 28
3178 3971 3973 28
3179 3971 3974 28
3180 3971 3975 28
3181 3976 3977 28
3182 3976 3978 28
3183 3976 3979 28
3184 3976 3980 28
3185 3981 3982 28
3186 3981 3983 28
3187 3981 3984 28
3188 3981 3985 28
3189 3986 3987 28
3190 3986 3988 28
3191 3986 3989 28
3192 3986 3990 28
3193 3991 3992 28
3194 3991 3993 28
3195 3991 3994 28
3196 3991 3995 28
3197 3996 3997 28
3198 3996 3998 28
3199 3996 3999 28
3200 3996 4000 28
3201 4001 4002 28
3202 4001 4003 28
3203 4001 4004 28
3204 4001 4005 28
3205 4006 4007 28
3206 4006 4008 28
3207 4006 4009 28
3208 4006 4010 28
3209 4011 4012 28
3210 4011 4013 28
3211 4011 4014 28
3212 4011 4015 28
3213 4016 4017 28
3214 4016 4018 28
3215 4016 4019 28
3216 4016 4020 28
3217 4021 4022 28
3218 4021 4023 28
3219 4021 4024 28
3220 4021 4025 28
3221 4026 4027 28
3222 4026 4028 28
3223 4026 4029 28
3224 4026 4030 28
3225 4031 4032 28
3226 4031 4033 28
3227 4031 4034 28
3228 4031 4035 28
3229 4036 4037 28
3230 4036 4038 28
3231 4036 4039 28
3232 4036 4040 28
3233 4041 4042 28
3234 4041 4043 28
3235 4041 4044 28
3236 4041 4045 28
3237 4046 4047 28
3238 4046 4048 28
3239 4046 4049 28
3240 4046 4050 28
3241 4051 4052 28
3242 4051 4053 28
3243 4051 4054 28
3244 4051 4055 28
3245 4056 4057 28
3246 4056 4058 28
3247 4056 4059 28
3248 4056 4060 28
3249 4061 4062 28
3250 4061 4063 28
3251 4061 4064 28
3252 4061 4065 28
3253 4066 4067 28
3254 4066 4068 28
3255 4066 4069 28
3256 4066 4070 28
3257 4071 4072 28
3258 4071 4073 28
3259 4071 4074 28
3260 4071 4075 28
3261 4076 4077 28
3262 4076 4078 28
3263 4076 4079 28
3264 4076 4080 28
3265 4081 4082 28
3266 4081 4083 28
3267 4081 4084 28
3268 4081 4085 28
3269 4086 4087 28
3270 4086 4088 28
3271 4086 4089 28
3272 4086 4090 28
3273 4091 4092 28
3274 4091 4093 28
3275 4091 4094 28
3276 4091 4095 28
3277 4096 4097 28
3278 4096 4098 28
3279 4096 4099 28
3280 4096 4100 28
3281 4101 4102 28
3282 4101 4103 28
3283 4101 4104 28
3284 4101 4105 28
3285 4106 4107 28
3286 4106 4108 28
3287 4106 4109 28
3288 4106 4110 28
3289 4111 4112 28
3290 4111 4113 28
3291 4111 4114 28
3292 4111 4115 28
3293 4116 4117 28
3294 4116 4118 28
3295 4116 4119 28
3296 4116 4120 28
3297 4121 4122 28
3298 4121 4123 28
3299 4121 4124 28
3300 4121 4125 28
3301 4126 4127 28
3302 4126 4128 28
3303 4126 4129 28
3304 4126 4130 28
3305 4131 4132 28
3306 4131 4133 28
3307 4131 4134 28
3308 4131 4135 28
3309 4136 4137 28
3310 4136 4138 28
3311 4136 4139 28
3312 4136 4140 28
3313 4141 4142 28
3314 4141 4143 28
3315 4141 4144 28
3316 4141 4145 28
3317 4146 4147 28
3318 4146 4148 28
3319 4146 4149 28
3320 4146 4150 28
3321 4151 4152 28
3322 4151 4153 28
3323 4151 4154 28
3324 4151 4155 28
3325 4156 4157 28
3326 4156 4158 28
3327 4156 4159 28
3328 4156 4160 28
3329 4161 4162 28
3330 4161 4163 28
3331 4161 4164 28
3332 4161 4165 28
3333 4166 4167 28
3334 4166 4168 28
3335 4166 4169 28
3336 4166 4170 28
3337 4171 4172 28
3338 4171 4173 28
3339 4171 4174 28
3340 4171 4175 28
3341 4176 4177 28
3342 4176 4178 28
3343 4176 4179 28
3344 4176 4180 28
3345 4181 4182 28
3346 4181 4183 28
3347 4181 4184 28
3348 4181 4185 28
3349 4186 4187 28
3350 4186 4188 28
3351 4186 4189 28
3352 4186 4190 28
3353 4191 4192 28
3354 4191 4193 28
3355 4191 4194 28
3356 4191 4195 28
3357 4196 4197 28
3358 4196 4198 28
3359 4196 4199 28
3360 4196 4200 28
3361 4201 4202 28
3362 4201 4203 28
3363 4201 4204 28
3364 4201 4205 28
3365 4206 4207 28
3366 4206 4208 28
3367 4206 4209 28
3368 4206 4210 28
3369 4211 4212 28
3370 4211 4213 28
3371 4211 4214 28
3372 4211 4215 28
3373 4216 4217 28
3374 4216 4218 28
3375 4216 4219 28
3376 4216 4220 28
3377 4221 4222 28
3378 4221 4223 28
3379 4221 4224 28
3380 4221 4225 28
3381 4226 4227 28
3382 4226 4228 28
3383 4226 4229 28
3384 4226 4230 28
3385 4231 4232 28
3386 4231 4233 28
3387 4231 4234 28
3388 4231 4235 28
3389 4236 4237 28
3390 4236 4238 28
3391 4236 4239 28
3392 4236 4240 28
3393 4241 4242 28
3394 4241 4243 28
3395 4241 4244 28
3396 4241 4245 28
3397 4246 4247 28
3398 4246 4248 28
3399 4246 4249 28
3400 4246 4250 28
3401 4251 4252 28
3402 4251 4253 28
3403 4251 4254 28
3404 4251 4255 28
3405 4256 4257 28
3406 4256 4258 28
3407 4256 4259 28
3408 4256 4260 28
3409 4261 4262 28
3410 4261 4263 28
3411 4261 4264 28
3412 4261 4265 28
3413 4266 4267 28
3414 4266 4268 28
3415 4266 4269 28
3416 4266 4270 28
3417 4271 4272 28
3418 4271 4273 28
3419 4271 4274 28
3420 4271 4275 28
3421 4276 4277 28
3422 4276 4278 28
3423 4276 4279 28
3424 4276 4280 28
3425 4281 4282 28
3426 4281 4283 28
3427 4281 4284 28
3428 4281 4285 28
3429 4286 4287 28
3430 4286 4288 28
3431 4286 4289 28
3432 4286 4290 28
3433 4291 4292 28
3434 4291 4293 28
3435 4291 4294 28
3436 4291 4295 28
3437 4296 4297 28
3438 4296 4298 28
3439 4296 4299 28
3440 4296 4300 28
3441 4301 4302 28
3442 4301 4303 28
3443 4301 4304 28
3444 4301 4305 28
3445 4306 4307 28
3446 4306 4308 28
3447 4306 4309 28
3448 4306 4310 28
3449 4311 4312 28
3450 4311 4313 28
3451 4311 4314 28
3452 4311 4315 28
3453 4316 4317 28
3454 4316 4318 28
3455 4316 4319 28
3456 4316 4320 28
3457 4321 4322 28
3458 4321 4323 28
3459 4321 4324 28
3460 4321 4325 28
3461 4326 4327 28
3462 4326 4328 28
3463 4326 4329 28
3464 4326 4330 28
3465 4331 4332 28
3466 4331 4333 28
3467 4331 4334 28
3468 4331 4335 28
3469 4336 4337 28
3470 4336 4338 28
3471 4336 4339 28
3472 4336 4340 28
3473 4341 4342 28
3474 4341 4343 28
3475 4341 4344 28
3476 4341 4345 28
3477 4346 4347 28
3478 4346 4348 28
3479 4346 4349 28
3480 4346 4350 28
3481 4351 4352 28
3482 4351 4353 28
3483 4351 4354 28
3484 4351 4355 28
3485 4356 4357 28
3486 4356 4358 28
3487 4356 4359 28
3488 4356 4360 28
3489 4361 4362 28
3490 4361 4363 28
3491 4361 4364 28
3492 4361 4365 28
3493 4366 4367 28
3494 4366 4368 28
3495 4366 4369 28
3496 4366 4370 28
3497 4371 4372 28
3498 4371 4373 28
3499 4371 4374 28
3500 4371 4375 28
3501 4376 4377 28
3502 4376 4378 28
3503 4376 4379 28
3504 4376 4380 28
3505 4381 4382 28
3506 4381 4383 28
3507 4381 4384 28
3508 4381 4385 28
3509 4386 4387 28
3510 4386 4388 28
3511 4386 4389 28
3512 4386 4390 28
3513 4391 4392 28
3514 4391 4393 28
3515 4391 4394 28
3516 4391 4395 28
3517 4396 4397 28
3518 4396 4398 28
3519 4396 4399 28
3520 4396 4400 28
3521 4401 4402 28
3522 4401 4403 28
3523 4401 4404 28
3524 4401 4405 28
3525 4406 4407 28
3526 4406 4408 28
3527 4406 4409 28
3528 4406 4410 28
3529 4411 4412 28
3530 4411 4413 28
3531 4411 4414 28
3532 4411 4415 28
3533 4416 4417 28
3534 4416 4418 28
3535 4416 4419 28
3536 4416 4420 28
3537 4421 4422 28
3538 4421 4423 28
3539 4421 4424 28
3540 4421 4425 28
3541 4426 4427 28
3542 4426 4428 28
3543 4426 4429 28
3544 4426 4430 28
3545 4431 4432 28
3546 4431 4433 28
3547 4431 4434 28
3548 4431 4435 28
3549 4436 4437 28
3550 4436 4438 28
3551 4436 4439 28
3552 4436 4440 28
3553 4441 4442 28
3554 4441 4443 28
3555 4441 4444 28
3556 4441 4445 28
3557 4446 4447 28
3558 4446 4448 28
3559 4446 4449 28
3560 4446 4450 28
3561 4451 4452 28
3562 4451 4453 28
3563 4451 4454 28
3564 4451 4455 28
3565 4456 4457 28
3566 4456 4458 28
3567 4456 4459 28
3568 4456 4460 28
3569 4461 4462 28
3570 4461 4463 28
3571 4461 4464 28
3572 4461 4465 28
3573 4466 4467 28
3574 4466 4468 28
3575 4466 4469 28
3576 4466 4470 28
3577 4471 4472 28
3578 4471 4473 28
3579 4471 4474 28
3580 4471 4475 28
3581 4476 4477 28
3582 4476 4478 28
3583 4476 4479 28
3584 4476 4480 28
3585 4481 4482 28
3586 4481 4483 28
3587 4481 4484 28
3588 4481 4485 28
3589 4486 4487 28
3590 4486 4488 28
3591 4486 4489 28
3592 4486 4490 28
3593 4491 4492 28
3594 4491 4493 28
3595 4491 4494 28
3596 4491 4495 28
3597 4496 4497 28
3598 4496 4498 28
3599 4496 4499 28
3600 4496 4500 28
3601 4501 4502 28
3602 4501 4503 28
3603 4501 4504 28
3604 4501 4505 28
3605 4506 4507 28
3606 4506 4508 28
3607 4506 4509 28
3608 4506 4510 28
3609 4511 4512 28
3610 4511 4513 28
3611 4511 4514 28
3612 4511 4515 28
3613 4516 4517 28
3614 4516 4518 28
3615 4516 4519 28
3616 4516 4520 28
3617 4521 4522 28
3618 4521 4523 28
3619 4521 4524 28
3620 4521 4525 28
3621 4526 4527 28
3622 4526 4528 28
3623 4526 4529 28
3624 4526 4530 28
3625 4531 4532 28
3626 4531 4533 28
3627 4531 4534 28
3628 4531 4535 28
3629 4536 4537 28
3630 4536 4538 28
3631 4536 4539 28
3632 4536 4540 28
3633 4541 4542 28
3634 4541 4543 28
3635 4541 4544 28
3636 4541 4545 28
3637 4546 4547 28
3638 4546 4548 28
3639 4546 4549 28
3640 4546 4550 28
3641 4551 4552 28
3642 4551 4553 28
3643 4551 4554 28
3644 4551 4555 28
3645 4556 4557 28
3646 4556 4558 28
3647 4556 4559 28
3648 4556 4560 28
3649 4561 4562 28
3650 4561 4563 28
3651 4561 4564 28
3652 4561 4565 28
3653 4566 4567 28
3654 4566 4568 28
3655 4566 4569 28
3656 4566 4570 28
3657 4571 4572 28
3658 4571 4573 28
3659 4571 4574 28
3660 4571 4575 28
3661 4576 4577 28
3662 4576 4578 28
3663 4576 4579 28
3664 4576 4580 28
3665 4581 4582 28
3666 4581 4583 28
3667 4581 4584 28
3668 4581 4585 28
3669 4586 4587 28
3670 4586 4588 28
3671 4586 4589 28
3672 4586 4590 28
3673 4591 4592 28
3674 4591 4593 28
3675 4591 4594 28
3676 4591 4595 28
3677 4596 4597 28
3678 4596 4598 28
3679 4596 4599 28
3680 4596 4600 28
3681 4601 4602 28
3682 4601 4603 28
3683 4601 4604 28
3684 4601 4605 28
3685 4606 4607 28
3686 4606 4608 28
3687 4606 4609 28
3688 4606 4610 28
3689 4611 4612 28
3690 4611 4613 28
3691 4611 4614 28
3692 4611 4615 28
3693 4616 4617 28
3694 4616 4618 28
3695 4616 4619 28
3696 4616 4620 28
3697 4621 4622 28
3698 4621 4623 28
3699 4621 4624 28
3700 4621 4625 28
3701 4626 4627 28
3702 4626 4628 28
3703 4626 4629 28
3704 4626 4630 28
3705 4631 4632 28
3706 4631 4633 28
3707 4631 4634 28
3708 4631 4635 28
3709 4636 4637 28
3710 4636 4638 28
3711 4636 4639 28
3712 4636 4640 28
3713 4641 4642 28
3714 4641 4643 28
3715 4641 4644 28
3716 4641 4645 28
3717 4646 4647 28
3718 4646 4648 28
3719 4646 4649 28
3720 4646 4650 28
3721 4651 4652 28
3722 4651 4653 28
3723 4651 4654 28
3724 4651 4655 28
3725 4656 4657 28
3726 4656 4658 28
3727 4656 4659 28
3728 4656 4660 28
3729 4661 4662 28
3730 4661 4663 28
3731 4661 4664 28
3732 4661 4665 28
3733 4666 4667 28
3734 4666 4668 28
3735 4666 4669 28
3736 4666 4670 28
3737 4671 4672 28
3738 4671 4673 28
3739 4671 4674 28
3740 4671 4675 28
3741 4676 4677 28
3742 4676 4678 28
3743 4676 4679 28
3744 4676 4680 28
3745 4681 4682 28
3746 4681 4683 28
3747 4681 4684 28
3748 4681 4685 28
3749 4686 4687 28
3750 4686 4688 28
3751 4686 4689 28
3752 4686 4690 28
3753 4691 4692 28
3754 4691 4693 28
3755 4691 4694 28
3756 4691 4695 28
3757 4696 4697 28
3758 4696 4698 28
3759 4696 4699 28
3760 4696 4700 28
3761 4701 4702 28
3762 4701 4703 28
3763 4701 4704 28
3764 4701 4705 28
3765 4706 4707 28
3766 4706 4708 28
3767 4706 4709 28
3768 4706 4710 28
3769 4711 4712 28
3770 4711 4713 28
3771 4711 4714 28
3772 4711 4715 28
3773 4716 4717 28
3774 4716 4718 28
3775 4716 4719 28
3776 4716 4720 28
3777 4721 4722 28
3778 4721 4723 28
3779 4721 4724 28
3780 4721 4725 28
3781 4726 4727 28
3782 4726 4728 28
3783 4726 4729 28
3784 4726 4730 28
3785 4731 4732 28
3786 4731 4733 28
3787 4731 4734 28
3788 4731 4735 28
3789 4736 4737 28
3790 4736 4738 28
3791 4736 4739 28
3792 4736 4740 28
3793 4741 4742 28
3794 4741 4743 28
3795 4741 4744 28
3796 4741 4745 28
3797 4746 4747 28
3798 4746 4748 28
3799 4746 4749 28
3800 4746 4750 28
3801 4751 4752 28
3802 4751 4753 28
3803 4751 4754 28
3804 4751 4755 28
3805 4756 4757 28
3806 4756 4758 28
3807 4756 4759 28
3808 4756 4760 28
3809 4761 4762 28
3810 4761 4763 28
3811 4761 4764 28
3812 4761 4765 28
3813 4766 4767 28
3814 4766 4768 28
3815 4766 4769 28
3816 4766 4770 28
3817 4771 4772 28
3818 4771 4773 28
3819 4771 4774 28
3820 4771 4775 28
3821 4776 4777 28
3822 4776 4778 28
3823 4776 4779 28
3824 4776 4780 28
3825 4781 4782 28
3826 4781 4783 28
3827 4781 4784 28
3828 4781 4785 28
3829 4786 4787 28
3830 4786 4788 28
3831 4786 4789 28
3832 4786 4790 28
3833 4791 4792 28
3834 4791 4793 28
3835 4791 4794 28
3836 4791 4795 28
3837 4796 4797 28
3838 4796 4798 28
3839 4796 4799 28
3840 4796 4800 28
3841 4801 4802 28
3842 4801 4803 28
3843 4801 4804 28
3844 4801 4805 28
3845 4806 4807 28
3846 4806 4808 28
3847 4806 4809 28
3848 4806 4810 28
3849 4811 4812 28
3850 4811 4813 28
3851 4811 4814 28
3852 4811 4815 28
3853 4816 4817 28
3854 4816 4818 28
3855 4816 4819 28
3856 4816 4820 28
3857 4821 4822 28
3858 4821 4823 28
3859 4821 4824 28
3860 4821 4825 28
3861 4826 4827 28
3862 4826 4828 28
3863 4826 4829 28
3864 4826 4830 28
3865 4831 4832 28
3866 4831 4833 28
3867 4831 4834 28
3868 4831 4835 28
3869 4836 4837 28
3870 4836 4838 28
3871 4836 4839 28
3872 4836 4840 28
3873 4841 4842 28
3874 4841 4843 28
3875 4841 4844 28
3876 4841 4845 28
3877 4846 4847 28
3878 4846 4848 28
3879 4846 4849 28
3880 4846 4850 28
3881 4851 4852 28
3882 4851 4853 28
3883 4851 4854 28
3884 4851 4855 28
3885 4856 4857 28
3886 4856 4858 28
3887 4856 4859 28
3888 4856 4860 28
3889 4861 4862 28
3890 4861 4863 28
3891 4861 4864 28
3892 4861 4865 28
3893 4866 4867 28
3894 4866 4868 28
3895 4866 4869 28
3896 4866 4870 28
3897 4871 4872 28
3898 4871 4873 28
3899 4871 4874 28
3900 4871 4875 28
3901 4876 4877 28
3902 4876 4878 28
3903 4876 4879 28
3904 4876 4880 28
3905 4881 4882 28
3906 4881 4883 28
3907 4881 4884 28
3908 4881 4885 28
3909 4886 4887 28
3910 4886 4888 28
3911 4886 4889 28
3912 4886 4890 28
3913 4891 4892 28
3914 4891 4893 28
3915 4891 4894 28
3916 4891 4895 28
3917 4896 4897 28
3918 4896 4898 28
3919 4896 4899 28
3920 4896 4900 28
3921 4901 4902 28
3922 4901 4903 28
3923 4901 4904 28
3924 4901 4905 28
3925 4906 4907 28
3926 4906 4908 28
3927 4906 4909 28
3928 4906 4910 28
3929 4911 4912 28
3930 4911 4913 28
3931 4911 4914 28
3932 4911 4915 28
3933 4916 4917 28
3934 4916 4918 28
3935 4916 4919 28
3936 4916 4920 28
3937 4921 4922 28
3938 4921 4923 28
3939 4921 4924 28
3940 4921 4925 28
3941 4926 4927 28
3942 4926 4928 28
3943 4926 4929 28
3944 4926 4930 28
3945 4931 4932 28
3946 4931 4933 28
3947 4931 4934 28
3948 4931 4935 28
3949 4936 4937 28
3950 4936 4938 28
3951 4936 4939 28
3952 4936 4940 28
3953 4941 4942 28
3954 4941 4943 28
3955 4941 4944 28
3956 4941 4945 28
3957 4946 4947 28
3958 4946 4948 28
3959 4946 4949 28
3960 4946 4950 28
3961 4951 4952 28
3962 4951 4953 28
3963 4951 4954 28
3964 4951 4955 28
3965 4956 4957 28
3966 4956 4958 28
3967 4956 4959 28
3968 4956 4960 28
3969 4961 4962 28
3970 4961 4963 28
3971 4961 4964 28
3972 4961 4965 28
3973 4966 4967 28
3974 4966 4968 28
3975 4966 4969 28
3976 4966 4970 28
3977 4971 4972 28
3978 4971 4973 28
3979 4971 4974 28
3980 4971 4975 28
3981 4976 4977 28
3982 4976 4978 28
3983 4976 4979 28
3984 4976 4980 28
3985 4981 4982 28
3986 4981 4983 28
3987 4981 4984 28
3988 4981 4985 28
3989 4986 4987 28
3990 4986 4988 28
3991 4986 4989 28
3992 4986 4990 28
3993 4991 4992 28
3994 4991 4993 28
3995 4991 4994 28
3996 4991 4995 28
3997 4996 4997 28
3998 4996 4998 28
3999 4996 4999 28
4000 4996 5000 28
4001 5001 5002 28
4002 5001 5003 28
4003 5001 5004 28
4004 5001 5005 28
4005 5006 5007 28
4006 5006 5008 28
4007 5006 5009 28
4008 5006 5010 28
4009 5011 5012 28
4010 5011 5013 28
4011 5011 5014 28
4012 5011 5015 28
4013 5016 5017 28
4014 5016 5018 28
4015 5016 5019 28
4016 5016 5020 28
4017 5021 5022 28
4018 5021 5023 28
4019 5021 5024 28
4020 5021 5025 28
4021 5026 5027 28
4022 5026 5028 28
4023 5026 5029 28
4024 5026 5030 28
4025 5031 5032 28
4026 5031 5033 28
4027 5031 5034 28
4028 5031 5035 28
4029 5036 5037 28
4030 5036 5038 28
4031 5036 5039 28
4032 5036 5040 28
4033 5041 5042 28
4034 5041 5043 28
4035 5041 5044 28
4036 5041 5045 28
4037 5046 5047 28
4038 5046 5048 28
4039 5046 5049 28
4040 5046 5050 28
4041 5051 5052 28
4042 5051 5053 28
4043 5051 5054 28
4044 5051 5055 28
4045 5056 5057 28
4046 5056 5058 28
4047 5056 5059 28
4048 5056 5060 28
4049 5061 5062 28
4050 5061 5063 28
4051 5061 5064 28
4052 5061 5065 28
4053 5066 5067 28
4054 5066 5068 28
4055 5066 5069 28
4056 5066 5070 28
4057 5071 5072 28
4058 5071 5073 28
4059 5071 5074 28
4060 5071 5075 28
4061 5076 5077 28
4062 5076 5078 28
4063 5076 5079 28
4064 5076 5080 28
4065 5081 5082 28
4066 5081 5083 28
4067 5081 5084 28
4068 5081 5085 28
4069 5086 5087 28
4070 5086 5088 28
4071 5086 5089 28
4072 5086 5090 28
4073 5091 5092 28
4074 5091 5093 28
4075 5091 5094 28
4076 5091 5095 28
4077 5096 5097 28
4078 5096 5098 28
4079 5096 5099 28
4080 5096 5100 28
4081 5101 5102 28
4082 5101 5103 28
4083 5101 5104 28
4084 5101 5105 28
4085 5106 5107 28
4086 5106 5108 28
4087 5106 5109 28
4088 5106 5110 28
4089 5111 5112 28
4090 5111 5113 28
4091 5111 5114 28
4092 5111 5115 28
4093 5116 5117 28
4094 5116 5118 28
4095 5116 5119 28
4096 5116 5120 28
4097 5121 5122 28
4098 5121 5123 28
4099 5121 5124 28
4100 5121 5125 28
4101 5126 5127 28
4102 5126 5128 28
4103 5126 5129 28
4104 5126 5130 28
4105 5131 5132 28
4106 5131 5133 28
4107 5131 5134 28
4108 5131 5135 28
4109 5136 5137 28
4110 5136 5138 28
4111 5136 5139 28
4112 5136 5140 28
4113 5141 5142 28
4114 5141 5143 28
4115 5141 5144 28
4116 5141 5145 28
4117 5146 5147 28
4118 5146 5148 28
4119 5146 5149 28
4120 5146 5150 28
4121 5151 5152 28
4122 5151 5153 28
4123 5151 5154 28
4124 5151 5155 28
4125 5156 5157 28
4126 5156 5158 28
4127 5156 5159 28
4128 5156 5160 28
4129 5161 5162 28
4130 5161 5163 28
4131 5161 5164 28
4132 5161 5165 28
4133 5166 5167 28
4134 5166 5168 28
4135 5166 5169 28
4136 5166 5170 28
4137 5171 5172 28
4138 5171 5173 28
4139 5171 5174 28
4140 5171 5175 28
4141 5176 5177 28
4142 5176 5178 28
4143 5176 5179 28
4144 5176 5180 28
4145 5181 5182 28
4146 5181 5183 28
4147 5181 5184 28
4148 5181 5185 28
4149 5186 5187 28
4150 5186 5188 28
4151 5186 5189 28
4152 5186 5190 28
4153 5191 5192 28
4154 5191 5193 28
4155 5191 5194 28
4156 5191 5195 28
4157 5196 5197 28
4158 5196 5198 28
4159 5196 5199 28
4160 5196 5200 28
4161 5201 5202 28
4162 5201 5203 28
4163 5201 5204 28
4164 5201 5205 28
4165 5206 5207 28
4166 5206 5208 28
4167 5206 5209 28
4168 5206 5210 28
4169 5211 5212 28
4170 5211 5213 28
4171 5211 5214 28
4172 5211 5215 28
4173 5216 5217 28
4174 5216 5218 28
4175 5216 5219 28
4176 5216 5220 28
4177 5221 5222 28
4178 5221 5223 28
4179 5221 5224 28
4180 5221 5225 28
4181 5226 5227 28
4182 5226 5228 28
4183 5226 5229 28
4184 5226 5230 28
4185 5231 5232 28
4186 5231 5233 28
4187 5231 5234 28
4188 5231 5235 28
4189 5236 5237 28
4190 5236 5238 28
4191 5236 5239 28
4192 5236 5240 28
4193 5241 5242 28
4194 5241 5243 28
4195 5241 5244 28
4196 5241 5245 28
4197 5246 5247 28
4198 5246 5248 28
4199 5246 5249 28
4200 5246 5250 28
4201 5251 5252 28
4202 5251 5253 28
4203 5251 5254 28
4204 5251 5255 28
4205 5256 5257 28
4206 5256 5258 28
4207 5256 5259 28
4208 5256 5260 28
4209 5261 5262 28
4210 5261 5263 28
4211 5261 5264 28
4212 5261 5265 28
4213 5266 5267 28
4214 5266 5268 28
4215 5266 5269 28
4216 5266 5270 28
4217 5271 5272 28
4218 5271 5273 28
4219 5271 5274 28
4220 5271 5275 28
4221 5276 5277 28
4222 5276 5278 28
4223 5276 5279 28
4224 5276 5280 28
4225 5281 5282 28
4226 5281 5283 28
4227 5281 5284 28
4228 5281 5285 28
4229 5286 5287 28
4230 5286 5288 28
4231 5286 5289 28
4232 5286 5290 28
4233 5291 5292 28
4234 5291 5293 28
4235 5291 5294 28
4236 5291 5295 28
4237 5296 5297 28
4238 5296 5298 28
4239 5296 5299 28
4240 5296 5300 28
4241 5301 5302 28
4242 5301 5303 28
4243 5301 5304 28
4244 5301 5305 28
4245 5306 5307 28
4246 5306 5308 28
4247 5306 5309 28
4248 5306 5310 28
4249 5311 5312 28
4250 5311 5313 28
4251 5311 5314 28
4252 5311 5315 28
4253 5316 5317 28
4254 5316 5318 28
4255 5316 5319 28
4256 5316 5320 28
4257 5321 5322 28
4258 5321 5323 28
4259 5321 5324 28
4260 5321 5325 28
4261 5326 5327 28
4262 5326 5328 28
4263 5326 5329 28
4264 5326 5330 28
4265 5331 5332 28
4266 5331 5333 28
4267 5331 5334 28
4268 5331 5335 28
4269 5336 5337 28
4270 5336 5338 28
4271 5336 5339 28
4272 5336 5340 28
4273 5341 5342 28
4274 5341 5343 28
4275 5341 5344 28
4276 5341 5345 28
4277 5346 5347 28
4278 5346 5348 28
4279 5346 5349 28
4280 5346 5350 28
4281 5351 5352 28
4282 5351 5353 28
4283 5351 5354 28
4284 5351 5355 28
4285 5356 5357 28
4286 5356 5358 28
4287 5356 5359 28
4288 5356 5360 28
4289 5361 5362 28
4290 5361 5363 28
4291 5361 5364 28
4292 5361 5365 28
4293 5366 5367 28
4294 5366 5368 28
4295 5366 5369 28
4296 5366 5370 28
4297 5371 5372 28
4298 5371 5373 28
4299 5371 5374 28
4300 5371 5375 28
4301 5376 5377 28
4302 5376 5378 28
4303 5376 5379 28
4304 5376 5380 28
4305 5381 5382 28
4306 5381 5383 28
4307 5381 5384 28
4308 5381 5385 28
4309 5386 5387 28
4310 5386 5388 28
4311 5386 5389 28
4312 5386 5390 28
4313 5391 5392 28
4314 5391 5393 28
4315 5391 5394 28
4316 5391 5395 28
4317 5396 5397 28
4318 5396 5398 28
4319 5396 5399 28
4320 5396 5400 28
4321 5401 5402 28
4322 5401 5403 28
4323 5401 5404 28
4324 5401 5405 28
4325 5406 5407 28
4326 5406 5408 28
4327 5406 5409 28
4328 5406 5410 28
4329 5411 5412 28
4330 5411 5413 28
4331 5411 5414 28
4332 5411 5415 28
4333 5416 5417 28
4334 5416 5418 28
4335 5416 5419 28
4336 5416 5420 28
4337 5421 5422 28
4338 5421 5423 28
4339 5421 5424 28
4340 5421 5425 28
4341 5426 5427 28
4342 5426 5428 28
4343 5426 5429 28
4344 5426 5430 28
4345 5431 5432 28
4346 5431 5433 28
4347 5431 5434 28
4348 5431 5435 28
4349 5436 5437 28
4350 5436 5438 28
4351 5436 5439 28
4352 5436 5440 28
4353 5441 5442 28
4354 5441 5443 28
4355 5441 5444 28
4356 5441 5445 28
4357 5446 5447 28
4358 5446 5448 28
4359 5446 5449 28
4360 5446 5450 28
4361 5451 5452 28
4362 5451 5453 28
4363 5451 5454 28
4364 5451 5455 28
4365 5456 5457 28
4366 5456 5458 28
4367 5456 5459 28
4368 5456 5460 28
4369 5461 5462 28
4370 5461 5463 28
4371 5461 5464 28
4372 5461 5465 28
4373 5466 5467 28
4374 5466 5468 28
4375 5466 5469 28
4376 5466 5470 28
4377 5471 5472 28
4378 5471 5473 28
4379 5471 5474 28
4380 5471 5475 28
4381 5476 5477 28
4382 5476 5478 28
4383 5476 5479 28
4384 5476 5480 28
4385 5481 5482 28
4386 5481 5483 28
4387 5481 5484 28
4388 5481 5485 28
4389 5486 5487 28
4390 5486 5488 28
4391 5486 5489 28
4392 5486 5490 28
4393 5491 5492 28
4394 5491 5493 28
4395 5491 5494 28
4396 5491 5495 28
4397 5496 5497 28
4398 5496 5498 28
4399 5496 5499 28
4400 5496 5500 28
4401 5501 5502 28
4402 5501 5503 28
4403 5501 5504 28
4404 5501 5505 28
4405 5506 5507 28
4406 5506 5508 28
4407 5506 5509 28
4408 5506 5510 28
4409 5511 5512 28
4410 5511 5513 28
4411 5511 5514 28
4412 5511 5515 28
4413 5516 5517 28
4414 5516 5518 28
4415 5516 5519 28
4416 5516 5520 28
4417 5521 5522 28
4418 5521 5523 28
4419 5521 5524 28
4420 5521 5525 28
4421 5526 5527 28
4422 5526 5528 28
4423 5526 5529 28
4424 5526 5530 28
4425 5531 5532 28
4426 5531 5533 28
4427 5531 5534 28
4428 5531 5535 28
4429 5536 5537 28
4430 5536 5538 28
4431 5536 5539 28
4432 5536 5540 28
4433 5541 5542 28
4434 5541 5543 28
4435 5541 5544 28
4436 5541 5545 28
4437 5546 5547 28
4438 5546 5548 28
4439 5546 5549 28
4440 5546 5550 28
4441 5551 5552 28
4442 5551 5553 28
4443 5551 5554 28
4444 5551 5555 28
4445 5556 5557 28
4446 5556 5558 28
4447 5556 5559 28
4448 5556 5560 28
4449 5561 5562 28
4450 5561 5563 28
4451 5561 5564 28
4452 5561 5565 28
4453 5566 5567 28
4454 5566 5568 28
4455 5566 5569 28
4456 5566 5570 28
4457 5571 5572 28
4458 5571 5573 28
4459 5571 5574 28
4460 5571 5575 28
4461 5576 5577 28
4462 5576 5578 28
4463 5576 5579 28
4464 5576 5580 28
4465 5581 5582 28
4466 5581 5583 28
4467 5581 5584 28
4468 5581 5585 28
4469 5586 5587 28
4470 5586 5588 28
4471 5586 5589 28
4472 5586 5590 28
4473 5591 5592 28
4474 5591 5593 28
4475 5591 5594 28
4476 5591 5595 28
4477 5596 5597 28
4478 5596 5598 28
4479 5596 5599 28
4480 5596 5600 28
4481 5601 5602 28
4482 5601 5603 28
4483 5601 5604 28
4484 5601 5605 28
4485 5606 5607 28
4486 5606 5608 28
4487 5606 5609 28
4488 5606 5610 28
4489 5611 5612 28
4490 5611 5613 28
4491 5611 5614 28
4492 5611 5615 28
4493 5616 5617 28
4494 5616 5618 28
4495 5616 5619 28
4496 5616 5620 28
4497 5621 5622 28
4498 5621 5623 28
4499 5621 5624 28
4500 5621 5625 28
4501 5626 5627 28
4502 5626 5628 28
4503 5626 5629 28
4504 5626 5630 28
4505 5631 5632 28
4506 5631 5633 28
4507 5631 5634 28
4508 5631 5635 28
4509 5636 5637 28
4510 5636 5638 28
4511 5636 5639 28
4512 5636 5640 28
4513 5641 5642 28
4514 5641 5643 28
4515 5641 5644 28
4516 5641 5645 28
4517 5646 5647 28
4518 5646 5648 28
4519 5646 5649 28
4520 5646 5650 28
4521 5651 5652 28
4522 5651 5653 28
4523 5651 5654 28
4524 5651 5655 28
4525 5656 5657 28
4526 5656 5658 28
4527 5656 5659 28
4528 5656 5660 28
4529 5661 5662 28
4530 5661 5663 28
4531 5661 5664 28
4532 5661 5665 28
4533 5666 5667 28
4534 5666 5668 28
4535 5666 5669 28
4536 5666 5670 28
4537 5671 5672 28
4538 5671 5673 28
4539 5671 5674 28
4540 5671 5675 28
4541 5676 5677 28
4542 5676 5678 28
4543 5676 5679 28
4544 5676 5680 28
4545 5681 5682 28
4546 5681 5683 28
4547 5681 5684 28
4548 5681 5685 28
4549 5686 5687 28
4550 5686 5688 28
4551 5686 5689 28
4552 5686 5690 28
4553 5691 5692 28
4554 5691 5693 28
4555 5691 5694 28
4556 5691 5695 28
4557 5696 5697 28
4558 5696 5698 28
4559 5696 5699 28
4560 5696 5700 28
4561 5701 5702 28
4562 5701 5703 28
4563 5701 5704 28
4564 5701 5705 28
4565 5706 5707 28
4566 5706 5708 28
4567 5706 5709 28
4568 5706 5710 28
4569 5711 5712 28
4570 5711 5713 28
4571 5711 5714 28
4572 5711 5715 28
4573 5716 5717 28
4574 5716 5718 28
4575 5716 5719 28
4576 5716 5720 28
4577 5721 5722 28
4578 5721 5723 28
4579 5721 5724 28
4580 5721 5725 28
4581 5726 5727 28
4582 5726 5728 28
4583 5726 5729 28
4584 5726 5730 28
4585 5731 5732 28
4586 5731 5733 28
4587 5731 5734 28
4588 5731 5735 28
4589 5736 5737 28
4590 5736 5738 28
4591 5736 5739 28
4592 5736 5740 28
4593 5741 5742 28
4594 5741 5743 28
4595 5741 5744 28
4596 5741 5745 28
4597 5746 5747 28
4598 5746 5748 28
4599 5746 5749 28
4600 5746 5750 28
4601 5751 5752 28
4602 5751 5753 28
4603 5751 5754 28
4604 5751 5755 28
4605 5756 5757 28
4606 5756 5758 28
4607 5756 5759 28
4608 5756 5760 28
4609 5761 5762 28
4610 5761 5763 28
4611 5761 5764 28
4612 5761 5765 28
4613 5766 5767 28
4614 5766 5768 28
4615 5766 5769 28
4616 5766 5770 28
4617 5771 5772 28
4618 5771 5773 28
4619 5771 5774 28
4620 5771 5775 28
4621 5776 5777 28
4622 5776 5778 28
4623 5776 5779 28
4624 5776 5780 28
4625 5781 5782 28
4626 5781 5783 28
4627 5781 5784 28
4628 5781 5785 28
4629 5786 5787 28
4630 5786 5788 28
4631 5786 5789 28
4632 5786 5790 28
4633 5791 5792 28
4634 5791 5793 28
4635 5791 5794 28
4636 5791 5795 28
4637 5796 5797 28
4638 5796 5798 28
4639 5796 5799 28
4640 5796 5800 28
4641 5801 5802 28
4642 5801 5803 28
4643 5801 5804 28
4644 5801 5805 28
4645 5806 5807 28
4646 5806 5808 28
4647 5806 5809 28
4648 5806 5810 28
4649 5811 5812 28
4650 5811 5813 28
4651 5811 5814 28
4652 5811 5815 28
4653 5816 5817 28
4654 5816 5818 28
4655 5816 5819 28
4656 5816 5820 28
4657 5821 5822 28
4658 5821 5823 28
4659 5821 5824 28
4660 5821 5825 28
4661 5826 5827 28
4662 5826 5828 28
4663 5826 5829 28
4664 5826 5830 28
4665 5831 5832 28
4666 5831 5833 28
4667 5831 5834 28
4668 5831 5835 28
4669 5836 5837 28
4670 5836 5838 28
4671 5836 5839 28
4672 5836 5840 28
4673 5841 5842 28
4674 5841 5843 28
4675 5841 5844 28
4676 5841 5845 28
4677 5846 5847 28
4678 5846 5848 28
4679 5846 5849 28
4680 5846 5850 28
4681 5851 5852 28
4682 5851 5853 28
4683 5851 5854 28
4684 5851 5855 28
4685 5856 5857 28
4686 5856 5858 28
4687 5856 5859 28
4688 5856 5860 28
4689 5861 5862 28
4690 5861 5863 28
4691 5861 5864 28
4692 5861 5865 28
4693 5866 5867 28
4694 5866 5868 28
4695 5866 5869 28
4696 5866 5870 28
4697 5871 5872 28
4698 5871 5873 28
4699 5871 5874 28
4700 5871 5875 28
4701 5876 5877 28
4702 5876 5878 28
4703 5876 5879 28
4704 5876 5880 28
4705 5881 5882 28
4706 5881 5883 28
4707 5881 5884 28
4708 5881 5885 28
4709 5886 5887 28
4710 5886 5888 28
4711 5886 5889 28
4712 5886 5890 28
4713 5891 5892 28
4714 5891 5893 28
4715 5891 5894 28
4716 5891 5895 28
4717 5896 5897 28
4718 5896 5898 28
4719 5896 5899 28
4720 5896 5900 28
4721 5901 5902 28
4722 5901 5903 28
4723 5901 5904 28
4724 5901 5905 28
4725 5906 5907 28
4726 5906 5908 28
4727 5906 5909 28
4728 5906 5910 28
4729 5911 5912 28
4730 5911 5913 28
4731 5911 5914 28
4732 5911 5915 28
4733 5916 5917 28
4734 5916 5918 28
4735 5916 5919 28
4736 5916 5920 28
4737 5921 5922 28
4738 5921 5923 28
4739 5921 5924 28
4740 5921 5925 28
4741 5926 5927 28
4742 5926 5928 28
4743 5926 5929 28
4744 5926 5930 28
4745 5931 5932 28
4746 5931 5933 28
4747 5931 5934 28
4748 5931 5935 28
4749 5936 5937 28
4750 5936 5938 28
4751 5936 5939 28
4752 5936 5940 28
4753 5941 5942 28
4754 5941 5943 28
4755 5941 5944 28
4756 5941 5945 28
4757 5946 5947 28
4758 5946 5948 28
4759 5946 5949 28
4760 5946 5950 28
4761 5951 5952 28
4762 5951 5953 28
4763 5951 5954 28
4764 5951 5955 28
4765 5956 5957 28
4766 5956 5958 28
4767 5956 5959 28
4768 5956 5960 28
4769 5961 5962 28
4770 5961 5963 28
4771 5961 5964 28
4772 5961 5965 28
4773 5966 5967 28
4774 5966 5968 28
4775 5966 5969 28
4776 5966 5970 28
4777 5971 5972 28
4778 5971 5973 28
4779 5971 5974 28
4780 5971 5975 28
4781 5976 5977 28
4782 5976 5978 28
4783 5976 5979 28
4784 5976 5980 28
4785 5981 5982 28
4786 5981 5983 28
4787 5981 5984 28
4788 5981 5985 28
4789 5986 5987 28
4790 5986 5988 28
4791 5986 5989 28
4792 5986 5990 28
4793 5991 5992 28
4794 5991 5993 28
4795 5991 5994 28
4796 5991 5995 28
4797 5996 5997 28
4798 5996 5998 28
4799 5996 5999 28
4800 5996 6000 28
4801 6001 6002 28
4802 6001 6003 28
4803 6001 6004 28
4804 6001 6005 28
4805 6006 6007 28
4806 6006 6008 28
4807 6006 6009 28
4808 6006 6010 28
4809 6011 6012 28
4810 6011 6013 28
4811 6011 6014 28
4812 6011 6015 28
4813 6016 6017 28
4814 6016 6018 28
4815 6016 6019 28
4816 6016 6020 28
4817 6021 6022 28
4818 6021 6023 28
4819 6021 6024 28
4820 6021 6025 28
4821 6026 6027 28
4822 6026 6028 28
4823 6026 6029 28
4824 6026 6030 28
4825 6031 6032 28
4826 6031 6033 28
4827 6031 6034 28
4828 6031 6035 28
4829 6036 6037 28
4830 6036 6038 28
4831 6036 6039 28
4832 6036 6040 28
4833 6041 6042 28
4834 6041 6043 28
4835 6041 6044 28
4836 6041 6045 28
4837 6046 6047 28
4838 6046 6048 28
4839 6046 6049 28
4840 6046 6050 28
4841 6051 6052 28
4842 6051 6053 28
4843 6051 6054 28
4844 6051 6055 28
4845 6056 6057 28
4846 6056 6058 28
4847 6056 6059 28
4848 6056 6060 28
4849 6061 6062 28
4850 6061 6063 28
4851 6061 6064 28
4852 6061 6065 28
4853 6066 6067 28
4854 6066 6068 28
4855 6066 6069 28
4856 6066 6070 28
4857 6071 6072 28
4858 6071 6073 28
4859 6071 6074 28
4860 6071 6075 28
4861 6076 6077 28
4862 6076 6078 28
4863 6076 6079 28
4864 6076 6080 28
4865 6081 6082 28
4866 6081 6083 28
4867 6081 6084 28
4868 6081 6085 28
4869 6086 6087 28
4870 6086 6088 28
4871 6086 6089 28
4872 6086 6090 28
4873 6091 6092 28
4874 6091 6093 28
4875 6091 6094 28
4876 6091 6095 28
4877 6096 6097 28
4878 6096 6098 28
4879 6096 6099 28
4880 6096 6100 28
4881 6101 6102 28
4882 6101 6103 28
4883 6101 6104 28
4884 6101 6105 28
4885 6106 6107 28
4886 6106 6108 28
4887 6106 6109 28
4888 6106 6110 28
4889 6111 6112 28
4890 6111 6113 28
4891 6111 6114 28
4892 6111 6115 28
4893 6116 6117 28
4894 6116 6118 28
4895 6116 6119 28
4896 6116 6120 28
4897 6121 6122 28
4898 6121 6123 28
4899 6121 6124 28
4900 6121 6125 28
4901 6126 6127 28
4902 6126 6128 28
4903 6126 6129 28
4904 6126 6130 28
4905 6131 6132 28
4906 6131 6133 28
4907 6131 6134 28
4908 6131 6135 28
4909 6136 6137 28
4910 6136 6138 28
4911 6136 6139 28
4912 6136 6140 28
4913 6141 6142 28
4914 6141 6143 28
4915 6141 6144 28
4916 6141 6145 28
4917 6146 6147 28
4918 6146 6148 28
4919 6146 6149 28
4920 6146 6150 28
4921 6151 6152 28
4922 6151 6153 28
4923 6151 6154 28
4924 6151 6155 28
4925 6156 6157 28
4926 6156 6158 28
4927 6156 6159 28
4928 6156 6160 28
4929 6161 6162 28
4930 6161 6163 28
4931 6161 6164 28
4932 6161 6165 28
4933 6166 6167 28
4934 6166 6168 28
4935 6166 6169 28
4936 6166 6170 28
4937 6171 6172 28
4938 6171 6173 28
4939 6171 6174 28
4940 6171 6175 28
4941 6176 6177 28
4942 6176 6178 28
4943 6176 6179 28
4944 6176 6180 28
4945 6181 6182 28
4946 6181 6183 28
4947 6181 6184 28
4948 6181 6185 28
4949 6186 6187 28
4950 6186 6188 28
4951 6186 6189 28
4952 6186 6190 28
4953 6191 6192 28
4954 6191 6193 28
4955 6191 6194 28
4956 6191 6195 28
4957 6196 6197 28
4958 6196 6198 28
4959 6196 6199 28
4960 6196 6200 28
4961 6201 6202 28
4962 6201 6203 28
4963 6201 6204 28
4964 6201 6205 28
4965 6206 6207 28
4966 6206 6208 28
4967 6206 6209 28
4968 6206 6210 28
4969 6211 6212 28
4970 6211 6213 28
4971 6211 6214 28
4972 6211 6215 28
4973 6216 6217 28
4974 6216 6218 28
4975 6216 6219 28
4976 6216 6220 28
4977 6221 6222 28
4978 6221 6223 28
4979 6221 6224 28
4980 6221 6225 28
4981 6226 6227 28
4982 6226 6228 28
4983 6226 6229 28
4984 6226 6230 28
4985 6231 6232 28
4986 6231 6233 28
4987 6231 6234 28
4988 6231 6235 28
4989 6236 6237 28
4990 6236 6238 28
4991 6236 6239 28
4992 6236 6240 28
4993 6241 6242 28
4994 6241 6243 28
4995 6241 6244 28
4996 6241 6245 28
4997 6246 6247 28
4998 6246 6248 28
4999 6246 6249 28
5000 6246 6250 28
5001 6251 6252 28
5002 6251 6253 28
5003 6251 6254 28
5004 6251 6255 28
5005 6256 6257 28
5006 6256 6258 28
5007 6256 6259 28
5008 6256 6260 28
5009 6261 6262 28
5010 6261 6263 28
5011 6261 6264 28
5012 6261 6265 28
5013 6266 6267 28
5014 6266 6268 28
5015 6266 6269 28
5016 6266 6270 28
5017 6271 6272 28
5018 6271 6273 28
5019 6271 6274 28
5020 6271 6275 28
5021 6276 6277 28
5022 6276 6278 28
5023 6276 6279 28
5024 6276 6280 28
5025 6281 6282 28
5026 6281 6283 28
5027 6281 6284 28
5028 6281 6285 28
5029 6286 6287 28
5030 6286 6288 28
5031 6286 6289 28
5032 6286 6290 28
5033 6291 6292 28
5034 6291 6293 28
5035 6291 6294 28
5036 6291 6295 28
5037 6296 6297 28
5038 6296 6298 28
5039 6296 6299 28
5040 6296 6300 28
5041 6301 6302 28
5042 6301 6303 28
5043 6301 6304 28
5044 6301 6305 28
5045 6306 6307 28
5046 6306 6308 28
5047 6306 6309 28
5048 6306 6310 28
5049 6311 6312 28
5050 6311 6313 28
5051 6311 6314 28
5052 6311 6315 28
5053 6316 6317 28
5054 6316 6318 28
5055 6316 6319 28
5056 6316 6320 28
5057 6321 6322 28
5058 6321 6323 28
5059 6321 6324 28
5060 6321 6325 28
5061 6326 6327 28
5062 6326 6328 28
5063 6326 6329 28
5064 6326 6330 28
5065 6331 6332 28
5066 6331 6333 28
5067 6331 6334 28
5068 6331 6335 28
5069 6336 6337 28
5070 6336 6338 28
5071 6336 6339 28
5072 6336 6340 28
5073 6341 6342 28
5074 6341 6343 28
5075 6341 6344 28
5076 6341 6345 28
5077 6346 6347 28
5078 6346 6348 28
5079 6346 6349 28
5080 6346 6350 28
5081 6351 6352 28
5082 6351 6353 28
5083 6351 6354 28
5084 6351 6355 28
5085 6356 6357 28
5086 6356 6358 28
5087 6356 6359 28
5088 6356 6360 28
5089 6361 6362 28
5090 6361 6363 28
5091 6361 6364 28
5092 6361 6365 28
5093 6366 6367 28
5094 6366 6368 28
5095 6366 6369 28
5096 6366 6370 28
5097 6371 6372 28
5098 6371 6373 28
5099 6371 6374 28
5100 6371 6375 28
5101 6376 6377 28
5102 6376 6378 28
5103 6376 6379 28
5104 6376 6380 28
5105 6381 6382 28
5106 6381 6383 28
5107 6381 6384 28
5108 6381 6385 28
5109 6386 6387 28
5110 6386 6388 28
5111 6386 6389 28
5112 6386 6390 28
5113 6391 6392 28
5114 6391 6393 28
5115 6391 6394 28
5116 6391 6395 28
5117 6396 6397 28
5118 6396 6398 28
5119 6396 6399 28
5120 6396 6400 28
5121 6401 6402 28
5122 6401 6403 28
5123 6401 6404 28
5124 6401 6405 28
5125 6406 6407 28
5126 6406 6408 28
5127 6406 6409 28
5128 6406 6410 28
5129 6411 6412 28
5130 6411 6413 28
5131 6411 6414 28
5132 6411 6415 28
5133 6416 6417 28
5134 6416 6418 28
5135 6416 6419 28
5136 6416 6420 28
5137 6421 6422 28
5138 6421 6423 28
5139 6421 6424 28
5140 6421 6425 28
5141 6426 6427 28
5142 6426 6428 28
5143 6426 6429 28
5144 6426 6430 28
5145 6431 6432 28
5146 6431 6433 28
5147 6431 6434 28
5148 6431 6435 28
5149 6436 6437 28
5150 6436 6438 28
5151 6436 6439 28
5152 6436 6440 28
5153 6441 6442 28
5154 6441 6443 28
5155 6441 6444 28
5156 6441 6445 28
5157 6446 6447 28
5158 6446 6448 28
5159 6446 6449 28
5160 6446 6450 28
5161 6451 6452 28
5162 6451 6453 28
5163 6451 6454 28
5164 6451 6455 28
5165 6456 6457 28
5166 6456 6458 28
5167 6456 6459 28
5168 6456 6460 28
5169 6461 6462 28
5170 6461 6463 28
5171 6461 6464 28
5172 6461 6465 28
5173 6466 6467 28
5174 6466 6468 28
5175 6466 6469 28
5176 6466 6470 28
5177 6471 6472 28
5178 6471 6473 28
5179 6471 6474 28
5180 6471 6475 28
5181 6476 6477 28
5182 6476 6478 28
5183 6476 6479 28
5184 6476 6480 28
5185 6481 6482 28
5186 6481 6483 28
5187 6481 6484 28
5188 6481 6485 28
5189 6486 6487 28
5190 6486 6488 28
5191 6486 6489 28
5192 6486 6490 28
5193 6491 6492 28
5194 6491 6493 28
5195 6491 6494 28
5196 6491 6495 28
5197 6496 6497 28
5198 6496 6498 28
5199 6496 6499 28
5200 6496 6500 28
5201 6501 6502 28
5202 6501 6503 28
5203 6501 6504 28
5204 6501 6505 28
5205 6506 6507 28
5206 6506 6508 28
5207 6506 6509 28
5208 6506 6510 28
5209 6511 6512 28
5210 6511 6513 28
5211 6511 6514 28
5212 6511 6515 28
5213 6516 6517 28
5214 6516 6518 28
5215 6516 6519 28
5216 6516 6520 28
5217 6521 6522 28
5218 6521 6523 28
5219 6521 6524 28
5220 6521 6525 28
5221 6526 6527 28
5222 6526 6528 28
5223 6526 6529 28
5224 6526 6530 28
5225 6531 6532 28
5226 6531 6533 28
5227 6531 6534 28
5228 6531 6535 28
5229 6536 6537 28
5230 6536 6538 28
5231 6536 6539 28
5232 6536 6540 28
5233 6541 6542 28
5234 6541 6543 28
5235 6541 6544 28
5236 6541 6545 28
5237 6546 6547 28
5238 6546 6548 28
5239 6546 6549 28
5240 6546 6550 28
5241 6551 6552 28
5242 6551 6553 28
5243 6551 6554 28
5244 6551 6555 28
5245 6556 6557 28
5246 6556 6558 28
5247 6556 6559 28
5248 6556 6560 28
5249 6561 6562 28
5250 6561 6563 28
5251 6561 6564 28
5252 6561 6565 28
5253 6566 6567 28
5254 6566 6568 28
5255 6566 6569 28
5256 6566 6570 28
5257 6571 6572 28
5258 6571 6573 28
5259 6571 6574 28
5260 6571 6575 28
5261 6576 6577 28
5262 6576 6578 28
5263 6576 6579 28
5264 6576 6580 28
5265 6581 6582 28
5266 6581 6583 28
5267 6581 6584 28
5268 6581 6585 28
5269 6586 6587 28
5270 6586 6588 28
5271 6586 6589 28
5272 6586 6590 28
5273 6591 6592 28
5274 6591 6593 28
5275 6591 6594 28
5276 6591 6595 28
5277 6596 6597 28
5278 6596 6598 28
5279 6596 6599 28
5280 6596 6600 28
5281 6601 6602 28
5282 6601 6603 28
5283 6601 6604 28
5284 6601 6605 28
5285 6606 6607 28
5286 6606 6608 28
5287 6606 6609 28
5288 6606 6610 28
5289 6611 6612 28
5290 6611 6613 28
5291 6611 6614 28
5292 6611 6615 28
5293 6616 6617 28
5294 6616 6618 28
5295 6616 6619 28
5296 6616 6620 28
5297 6621 6622 28
5298 6621 6623 28
5299 6621 6624 28
5300 6621 6625 28
5301 6626 6627 28
5302 6626 6628 28
5303 6626 6629 28
5304 6626 6630 28
5305 6631 6632 28
5306 6631 6633 28
5307 6631 6634 28
5308 6631 6635 28
5309 6636 6637 28
5310 6636 6638 28
5311 6636 6639 28
5312 6636 6640 28
5313 6641 6642 28
5314 6641 6643 28
5315 6641 6644 28
5316 6641 6645 28
5317 6646 6647 28
5318 6646 6648 28
5319 6646 6649 28
5320 6646 6650 28
5321 6651 6652 28
5322 6651 6653 28
5323 6651 6654 28
5324 6651 6655 28
5325 6656 6657 28
5326 6656 6658 28
5327 6656 6659 28
5328 6656 6660 28
5329 6661 6662 28
5330 6661 6663 28
5331 6661 6664 28
5332 6661 6665 28
5333 6666 6667 28
5334 6666 6668 28
5335 6666 6669 28
5336 6666 6670 28
5337 6671 6672 28
5338 6671 6673 28
5339 6671 6674 28
5340 6671 6675 28
5341 6676 6677 28
5342 6676 6678 28
5343 6676 6679 28
5344 6676 6680 28
5345 6681 6682 28
5346 6681 6683 28
5347 6681 6684 28
5348 6681 6685 28
5349 6686 6687 28
5350 6686 6688 28
5351 6686 6689 28
5352 6686 6690 28
5353 6691 6692 28
5354 6691 6693 28
5355 6691 6694 28
5356 6691 6695 28
5357 6696 6697 28
5358 6696 6698 28
5359 6696 6699 28
5360 6696 6700 28
5361 6701 6702 28
5362 6701 6703 28
5363 6701 6704 28
5364 6701 6705 28
5365 6706 6707 28
5366 6706 6708 28
5367 6706 6709 28
5368 6706 6710 28
5369 6711 6712 28
5370 6711 6713 28
5371 6711 6714 28
5372 6711 6715 28
5373 6716 6717 28
5374 6716 6718 28
5375 6716 6719 28
5376 6716 6720 28
5377 6721 6722 28
5378 6721 6723 28
5379 6721 6724 28
5380 6721 6725 28
5381 6726 6727 28
5382 6726 6728 28
5383 6726 6729 28
5384 6726 6730 28
5385 6731 6732 28
5386 6731 6733 28
5387 6731 6734 28
5388 6731 6735 28
5389 6736 6737 28
5390 6736 6738 28
5391 6736 6739 28
5392 6736 6740 28
5393 6741 6742 28
5394 6741 6743 28
5395 6741 6744 28
5396 6741 6745 28
5397 6746 6747 28
5398 6746 6748 28
5399 6746 6749 28
5400 6746 6750 28
5401 6751 6752 28
5402 6751 6753 28
5403 6751 6754 28
5404 6751 6755 28
5405 6756 6757 28
5406 6756 6758 28
5407 6756 6759 28
5408 6756 6760 28
5409 6761 6762 28
5410 6761 6763 28
5411 6761 6764 28
5412 6761 6765 28
5413 6766 6767 28
5414 6766 6768 28
5415 6766 6769 28
5416 6766 6770 28
5417 6771 6772 28
5418 6771 6773 28
5419 6771 6774 28
5420 6771 6775 28
5421 6776 6777 28
5422 6776 6778 28
5423 6776 6779 28
5424 6776 6780 28
5425 6781 6782 28
5426 6781 6783 28
5427 6781 6784 28
5428 6781 6785 28
5429 6786 6787 28
5430 6786 6788 28
5431 6786 6789 28
5432 6786 6790 28
5433 6791 6792 28
5434 6791 6793 28
5435 6791 6794 28
5436 6791 6795 28
5437 6796 6797 28
5438 6796 6798 28
5439 6796 6799 28
5440 6796 6800 28
5441 6801 6802 28
5442 6801 6803 28
5443 6801 6804 28
5444 6801 6805 28
5445 6806 6807 28
5446 6806 6808 28
5447 6806 6809 28
5448 6806 6810 28
5449 6811 6812 28
5450 6811 6813 28
5451 6811 6814 28
5452 6811 6815 28
5453 6816 6817 28
5454 6816 6818 28
5455 6816 6819 28
5456 6816 6820 28
5457 6821 6822 28
5458 6821 6823 28
5459 6821 6824 28
5460 6821 6825 28
5461 6826 6827 28
5462 6826 6828 28
5463 6826 6829 28
5464 6826 6830 28
5465 6831 6832 28
5466 6831 6833 28
5467 6831 6834 28
5468 6831 6835 28
5469 6836 6837 28
5470 6836 6838 28
5471 6836 6839 28
5472 6836 6840 28
5473 6841 6842 28
5474 6841 6843 28
5475 6841 6844 28
5476 6841 6845 28
5477 6846 6847 28
5478 6846 6848 28
5479 6846 6849 28
5480 6846 6850 28
5481 6851 6852 28
5482 6851 6853 28
5483 6851 6854 28
5484 6851 6855 28
5485 6856 6857 28
5486 6856 6858 28
5487 6856 6859 28
5488 6856 6860 28
5489 6861 6862 28
5490 6861 6863 28
5491 6861 6864 28
5492 6861 6865 28
5493 6866 6867 28
5494 6866 6868 28
5495 6866 6869 28
5496 6866 6870 28
5497 6871 6872 28
5498 6871 6873 28
5499 6871 6874 28
5500 6871 6875 28
5501 6876 6877 28
5502 6876 6878 28
5503 6876 6879 28
5504 6876 6880 28
5505 6881 6882 28
5506 6881 6883 28
5507 6881 6884 28
5508 6881 6885 28
5509 6886 6887 28
5510 6886 6888 28
5511 6886 6889 28
5512 6886 6890 28
5513 6891 6892 28
5514 6891 6893 28
5515 6891 6894 28
5516 6891 6895 28
5517 6896 6897 28
5518 6896 6898 28
5519 6896 6899 28
5520 6896 6900 28
5521 6901 6902 28
5522 6901 6903 28
5523 6901 6904 28
5524 6901 6905 28
5525 6906 6907 28
5526 6906 6908 28
5527 6906 6909 28
5528 6906 6910 28
5529 6911 6912 28
5530 6911 6913 28
5531 6911 6914 28
5532 6911 6915 28
5533 6916 6917 28
5534 6916 6918 28
5535 6916 6919 28
5536 6916 6920 28
5537 6921 6922 28
5538 6921 6923 28
5539 6921 6924 28
5540 6921 6925 28
5541 6926 6927 28
5542 6926 6928 28
5543 6926 6929 28
5544 6926 6930 28
5545 6931 6932 28
5546 6931 6933 28
5547 6931 6934 28
5548 6931 6935 28
5549 6936 6937 28
5550 6936 6938 28
5551 6936 6939 28
5552 6936 6940 28
5553 6941 6942 28
5554 6941 6943 28
5555 6941 6944 28
5556 6941 6945 28
5557 6946 6947 28
5558 6946 6948 28
5559 6946 6949 28
5560 6946 6950 28
5561 6951 6952 28
5562 6951 6953 28
5563 6951 6954 28
5564 6951 6955 28
5565 6956 6957 28
5566 6956 6958 28
5567 6956 6959 28
5568 6956 6960 28
5569 6961 6962 28
5570 6961 6963 28
5571 6961 6964 28
5572 6961 6965 28
5573 6966 6967 28
5574 6966 6968 28
5575 6966 6969 28
5576 6966 6970 28
5577 6971 6972 28
5578 6971 6973 28
5579 6971 6974 28
5580 6971 6975 28
5581 6976 6977 28
5582 6976 6978 28
5583 6976 6979 28
5584 6976 6980 28
5585 6981 6982 28
5586 6981 6983 28
5587 6981 6984 28
5588 6981 6985 28
5589 6986 6987 28
5590 6986 6988 28
5591 6986 6989 28
5592 6986 6990 28
5593 6991 6992 28
5594 6991 6993 28
5595 6991 6994 28
5596 6991 6995 28
5597 6996 6997 28
5598 6996 6998 28
5599 6996 6999 28
5600 6996 7000 28
5601 7001 7002 28
5602 7001 7003 28
5603 7001 7004 28
5604 7001 7005 28
5605 7006 7007 28
5606 7006 7008 28
5607 7006 7009 28
5608 7006 7010 28
5609 7011 7012 28
5610 7011 7013 28
5611 7011 7014 28
5612 7011 7015 28
5613 7016 7017 28
5614 7016 7018 28
5615 7016 7019 28
5616 7016 7020 28
5617 7021 7022 28
5618 7021 7023 28
5619 7021 7024 28
5620 7021 7025 28
5621 7026 7027 28
5622 7026 7028 28
5623 7026 7029 28
5624 7026 7030 28
5625 7031 7032 28
5626 7031 7033 28
5627 7031 7034 28
5628 7031 7035 28
5629 7036 7037 28
5630 7036 7038 28
5631 7036 7039 28
5632 7036 7040 28
5633 7041 7042 28
5634 7041 7043 28
5635 7041 7044 28
5636 7041 7045 28
5637 7046 7047 28
5638 7046 7048 28
5639 7046 7049 28
5640 7046 7050 28
5641 7051 7052 28
5642 7051 7053 28
5643 7051 7054 28
5644 7051 7055 28
5645 7056 7057 28
5646 7056 7058 28
5647 7056 7059 28
5648 7056 7060 28
5649 7061 7062 28
5650 7061 7063 28
5651 7061 7064 28
5652 7061 7065 28
5653 7066 7067 28
5654 7066 7068 28
5655 7066 7069 28
5656 7066 7070 28
5657 7071 7072 28
5658 7071 7073 28
5659 7071 7074 28
5660 7071 7075 28
5661 7076 7077 28
5662 7076 7078 28
5663 7076 7079 28
5664 7076 7080 28
5665 7081 7082 28
5666 7081 7083 28
5667 7081 7084 28
5668 7081 7085 28
5669 7086 7087 28
5670 7086 7088 28
5671 7086 7089 28
5672 7086 7090 28
5673 7091 7092 28
5674 7091 7093 28
5675 7091 7094 28
5676 7091 7095 28
5677 7096 7097 28
5678 7096 7098 28
5679 7096 7099 28
5680 7096 7100 28
5681 7101 7102 28
5682 7101 7103 28
5683 7101 7104 28
5684 7101 7105 28
5685 7106 7107 28
5686 7106 7108 28
5687 7106 7109 28
5688 7106 7110 28
5689 7111 7112 28
5690 7111 7113 28
5691 7111 7114 28
5692 7111 7115 28
5693 7116 7117 28
5694 7116 7118 28
5695 7116 7119 28
5696 7116 7120 28
5697 7121 7122 28
5698 7121 7123 28
5699 7121 7124 28
5700 7121 7125 28
5701 7126 7127 28
5702 7126 7128 28
5703 7126 7129 28
5704 7126 7130 28
5705 7131 7132 28
5706 7131 7133 28
5707 7131 7134 28
5708 7131 7135 28
5709 7136 7137 28
5710 7136 7138 28
5711 7136 7139 28
5712 7136 7140 28
5713 7141 7142 28
5714 7141 7143 28
5715 7141 7144 28
5716 7141 7145 28
5717 7146 7147 28
5718 7146 7148 28
5719 7146 7149 28
5720 7146 7150 28
5721 7151 7152 28
5722 7151 7153 28
5723 7151 7154 28
5724 7151 7155 28
5725 7156 7157 28
5726 7156 7158 28
5727 7156 7159 28
5728 7156 7160 28
5729 7161 7162 28
5730 7161 7163 28
5731 7161 7164 28
5732 7161 7165 28
5733 7166 7167 28
5734 7166 7168 28
5735 7166 7169 28
5736 7166 7170 28
5737 7171 7172 28
5738 7171 7173 28
5739 7171 7174 28
5740 7171 7175 28
5741 7176 7177 28
5742 7176 7178 28
5743 7176 7179 28
5744 7176 7180 28
5745 7181 7182 28
5746 7181 7183 28
5747 7181 7184 28
5748 7181 7185 28
5749 7186 7187 28
5750 7186 7188 28
5751 7186 7189 28
5752 7186 7190 28
5753 7191 7192 28
5754 7191 7193 28
5755 7191 7194 28
5756 7191 7195 28
5757 7196 7197 28
5758 7196 7198 28
5759 7196 7199 28
5760 7196 7200 28
5761 7201 7202 28
5762 7201 7203 28
5763 7201 7204 28
5764 7201 7205 28
5765 7206 7207 28
5766 7206 7208 28
5767 7206 7209 28
5768 7206 7210 28
5769 7211 7212 28
5770 7211 7213 28
5771 7211 7214 28
5772 7211 7215 28
5773 7216 7217 28
5774 7216 7218 28
5775 7216 7219 28
5776 7216 7220 28
5777 7221 7222 28
5778 7221 7223 28
5779 7221 7224 28
5780 7221 7225 28
5781 7226 7227 28
5782 7226 7228 28
5783 7226 7229 28
5784 7226 7230 28
5785 7231 7232 28
5786 7231 7233 28
5787 7231 7234 28
5788 7231 7235 28
5789 7236 7237 28
5790 7236 7238 28
5791 7236 7239 28
5792 7236 7240 28
5793 7241 7242 28
5794 7241 7243 28
5795 7241 7244 28
5796 7241 7245 28
5797 7246 7247 28
5798 7246 7248 28
5799 7246 7249 28
5800 7246 7250 28
5801 7251 7252 28
5802 7251 7253 28
5803 7251 7254 28
5804 7251 7255 28
5805 7256 7257 28
5806 7256 7258 28
5807 7256 7259 28
5808 7256 7260 28
5809 7261 7262 28
5810 7261 7263 28
5811 7261 7264 28
5812 7261 7265 28
5813 7266 7267 28
5814 7266 7268 28
5815 7266 7269 28
5816 7266 7270 28
5817 7271 7272 28
5818 7271 7273 28
5819 7271 7274 28
5820 7271 7275 28
5821 7276 7277 28
5822 7276 7278 28
5823 7276 7279 28
5824 7276 7280 28
5825 7281 7282 28
5826 7281 7283 28
5827 7281 7284 28
5828 7281 7285 28
5829 7286 7287 28
5830 7286 7288 28
5831 7286 7289 28
5832 7286 7290 28
5833 7291 7292 28
5834 7291 7293 28
5835 7291 7294 28
5836 7291 7295 28
5837 7296 7297 28
5838 7296 7298 28
5839 7296 7299 28
5840 7296 7300 28
5841 7301 7302 28
5842 7301 7303 28
5843 7301 7304 28
5844 7301 7305 28
5845 7306 7307 28
5846 7306 7308 28
5847 7306 7309 28
5848 7306 7310 28
5849 7311 7312 28
5850 7311 7313 28
5851 7311 7314 28
5852 7311 7315 28
5853 7316 7317 28
5854 7316 7318 28
5855 7316 7319 28
5856 7316 7320 28
5857 7321 7322 28
5858 7321 7323 28
5859 7321 7324 28
5860 7321 7325 28
5861 7326 7327 28
5862 7326 7328 28
5863 7326 7329 28
5864 7326 7330 28
5865 7331 7332 28
5866 7331 7333 28
5867 7331 7334 28
5868 7331 7335 28
5869 7336 7337 28
5870 7336 7338 28
5871 7336 7339 28
5872 7336 7340 28
5873 7341 7342 28
5874 7341 7343 28
5875 7341 7344 28
5876 7341 7345 28
5877 7346 7347 28
5878 7346 7348 28
5879 7346 7349 28
5880 7346 7350 28
5881 7351 7352 28
5882 7351 7353 28
5883 7351 7354 28
5884 7351 7355 28
5885 7356 7357 28
5886 7356 7358 28
5887 7356 7359 28
5888 7356 7360 28
5889 7361 7362 28
5890 7361 7363 28
5891 7361 7364 28
5892 7361 7365 28
5893 7366 7367 28
5894 7366 7368 28
5895 7366 7369 28
5896 7366 7370 28
5897 7371 7372 28
5898 7371 7373 28
5899 7371 7374 28
5900 7371 7375 28
5901 7376 7377 28
5902 7376 7378 28
5903 7376 7379 28
5904 7376 7380 28
5905 7381 7382 28
5906 7381 7383 28
5907 7381 7384 28
5908 7381 7385 28
5909 7386 7387 28
5910 7386 7388 28
5911 7386 7389 28
5912 7386 7390 28
5913 7391 7392 28
5914 7391 7393 28
5915 7391 7394 28
5916 7391 7395 28
5917 7396 7397 28
5918 7396 7398 28
5919 7396 7399 28
5920 7396 7400 28
5921 7401 7402 28
5922 7401 7403 28
5923 7401 7404 28
5924 7401 7405 28
5925 7406 7407 28
5926 7406 7408 28
5927 7406 7409 28
5928 7406 7410 28
5929 7411 7412 28
5930 7411 7413 28
5931 7411 7414 28
5932 7411 7415 28
5933 7416 7417 28
5934 7416 7418 28
5935 7416 7419 28
5936 7416 7420 28
5937 7421 7422 28
5938 7421 7423 28
5939 7421 7424 28
5940 7421 7425 28
5941 7426 7427 28
5942 7426 7428 28
5943 7426 7429 28
5944 7426 7430 28
5945 7431 7432 28
5946 7431 7433 28
5947 7431 7434 28
5948 7431 7435 28
5949 7436 7437 28
5950 7436 7438 28
5951 7436 7439 28
5952 7436 7440 28
5953 7441 7442 28
5954 7441 7443 28
5955 7441 7444 28
5956 7441 7445 28
5957 7446 7447 28
5958 7446 7448 28
5959 7446 7449 28
5960 7446 7450 28
5961 7451 7452 28
5962 7451 7453 28
5963 7451 7454 28
5964 7451 7455 28
5965 7456 7457 28
5966 7456 7458 28
5967 7456 7459 28
5968 7456 7460 28
5969 7461 7462 28
5970 7461 7463 28
5971 7461 7464 28
5972 7461 7465 28
5973 7466 7467 28
5974 7466 7468 28
5975 7466 7469 28
5976 7466 7470 28
5977 7471 7472 28
5978 7471 7473 28
5979 7471 7474 28
5980 7471 7475 28
5981 7476 7477 28
5982 7476 7478 28
5983 7476 7479 28
5984 7476 7480 28
5985 7481 7482 28
5986 7481 7483 28
5987 7481 7484 28
5988 7481 7485 28
5989 7486 7487 28
5990 7486 7488 28
5991 7486 7489 28
5992 7486 7490 28
5993 7491 7492 28
5994 7491 7493 28
5995 7491 7494 28
5996 7491 7495 28
5997 7496 7497 28
5998 7496 7498 28
5999 7496 7499 28
6000 7496 7500 28
6001 7501 7502 28
6002 7501 7503 28
6003 7501 7504 28
6004 7501 7505 28
6005 7506 7507 28
6006 7506 7508 28
6007 7506 7509 28
6008 7506 7510 28
6009 7511 7512 28
6010 7511 7513 28
6011 7511 7514 28
6012 7511 7515 28
6013 7516 7517 28
6014 7516 7518 28
6015 7516 7519 28
6016 7516 7520 28
6017 7521 7522 28
6018 7521 7523 28
6019 7521 7524 28
6020 7521 7525 28
6021 7526 7527 28
6022 7526 7528 28
6023 7526 7529 28
6024 7526 7530 28
6025 7531 7532 28
6026 7531 7533 28
6027 7531 7534 28
6028 7531 7535 28
6029 7536 7537 28
6030 7536 7538 28
6031 7536 7539 28
6032 7536 7540 28
6033 7541 7542 28
6034 7541 7543 28
6035 7541 7544 28
6036 7541 7545 28
6037 7546 7547 28
6038 7546 7548 28
6039 7546 7549 28
6040 7546 7550 28
6041 7551 7552 28
6042 7551 7553 28
6043 7551 7554 28
6044 7551 7555 28
6045 7556 7557 28
6046 7556 7558 28
6047 7556 7559 28
6048 7556 7560 28
6049 7561 7562 28
6050 7561 7563 28
6051 7561 7564 28
6052 7561 7565 28
6053 7566 7567 28
6054 7566 7568 28
6055 7566 7569 28
6056 7566 7570 28
6057 7571 7572 28
6058 7571 7573 28
6059 7571 7574 28
6060 7571 7575 28
6061 7576 7577 28
6062 7576 7578 28
6063 7576 7579 28
6064 7576 7580 28
6065 7581 7582 28
6066 7581 7583 28
6067 7581 7584 28
6068 7581 7585 28
6069 7586 7587 28
6070 7586 7588 28
6071 7586 7589 28
6072 7586 7590 28
6073 7591 7592 28
6074 7591 7593 28
6075 7591 7594 28
6076 7591 7595 28
6077 7596 7597 28
6078 7596 7598 28
6079 7596 7599 28
6080 7596 7600 28
6081 7601 7602 28
6082 7601 7603 28
6083 7601 7604 28
6084 7601 7605 28
6085 7606 7607 28
6086 7606 7608 28
6087 7606 7609 28
6088 7606 7610 28
6089 7611 7612 28
6090 7611 7613 28
6091 7611 7614 28
6092 7611 7615 28
6093 7616 7617 28
6094 7616 7618 28
6095 7616 7619 28
6096 7616 7620 28
6097 7621 7622 28
6098 7621 7623 28
6099 7621 7624 28
6100 7621 7625 28
6101 7626 7627 28
6102 7626 7628 28
6103 7626 7629 28
6104 7626 7630 28
6105 7631 7632 28
6106 7631 7633 28
6107 7631 7634 28
6108 7631 7635 28
6109 7636 7637 28
6110 7636 7638 28
6111 7636 7639 28
6112 7636 7640 28
6113 7641 7642 28
6114 7641 7643 28
6115 7641 7644 28
6116 7641 7645 28
6117 7646 7647 28
6118 7646 7648 28
6119 7646 7649 28
6120 7646 7650 28
6121 7651 7652 28
6122 7651 7653 28
6123 7651 7654 28
6124 7651 7655 28
6125 7656 7657 28
6126 7656 7658 28
6127 7656 7659 28
6128 7656 7660 28
6129 7661 7662 28
6130 7661 7663 28
6131 7661 7664 28
6132 7661 7665 28
6133 7666 7667 28
6134 7666 7668 28
6135 7666 7669 28
6136 7666 7670 28
6137 7671 7672 28
6138 7671 7673 28
6139 7671 7674 28
6140 7671 7675 28
6141 7676 7677 28
6142 7676 7678 28
6143 7676 7679 28
6144 7676 7680 28
6145 7681 7682 28
6146 7681 7683 28
6147 7681 7684 28
6148 7681 7685 28
6149 7686 7687 28
6150 7686 7688 28
6151 7686 7689 28
6152 7686 7690 28
6153 7691 7692 28
6154 7691 7693 28
6155 7691 7694 28
6156 7691 7695 28
6157 7696 7697 28
6158 7696 7698 28
6159 7696 7699 28
6160 7696 7700 28
6161 7701 7702 28
6162 7701 7703 28
6163 7701 7704 28
6164 7701 7705 28
6165 7706 7707 28
6166 7706 7708 28
6167 7706 7709 28
6168 7706 7710 28
6169 7711 7712 28
6170 7711 7713 28
6171 7711 7714 28
6172 7711 7715 28
6173 7716 7717 28
6174 7716 7718 28
6175 7716 7719 28
6176 7716 7720 28
6177 7721 7722 28
6178 7721 7723 28
6179 7721 7724 28
6180 7721 7725 28
6181 7726 7727 28
6182 7726 7728 28
6183 7726 7729 28
6184 7726 7730 28
6185 7731 7732 28
6186 7731 7733 28
6187 7731 7734 28
6188 7731 7735 28
6189 7736 7737 28
6190 7736 7738 28
6191 7736 7739 28
6192 7736 7740 28
6193 7741 7742 28
6194 7741 7743 28
6195 7741 7744 28
6196 7741 7745 28
6197 7746 7747 28
6198 7746 7748 28
6199 7746 7749 28
6200 7746 7750 28
6201 7751 7752 28
6202 7751 7753 28
6203 7751 7754 28
6204 7751 7755 28
6205 7756 7757 28
6206 7756 7758 28
6207 7756 7759 28
6208 7756 7760 28
6209 7761 7762 28
6210 7761 7763 28
6211 7761 7764 28
6212 7761 7765 28
6213 7766 7767 28
6214 7766 7768 28
6215 7766 7769 28
6216 7766 7770 28
6217 7771 7772 28
6218 7771 7773 28
6219 7771 7774 28
6220 7771 7775 28
6221 7776 7777 28
6222 7776 7778 28
6223 7776 7779 28
6224 7776 7780 28
6225 7781 7782 28
6226 7781 7783 28
6227 7781 7784 28
6228 7781 7785 28
6229 7786 7787 28
6230 7786 7788 28
6231 7786 7789 28
6232 7786 7790 28
6233 7791 7792 28
6234 7791 7793 28
6235 7791 7794 28
6236 7791 7795 28
6237 7796 7797 28
6238 7796 7798 28
6239 7796 7799 28
6240 7796 7800 28
6241 7801 7802 28
6242 7801 7803 28
6243 7801 7804 28
6244 7801 7805 28
6245 7806 7807 28
6246 7806 7808 28
6247 7806 7809 28
6248 7806 7810 28
6249 7811 7812 28
6250 7811 7813 28
6251 7811 7814 28
6252 7811 7815 28
6253 7816 7817 28
6254 7816 7818 28
6255 7816 7819 28
6256 7816 7820 28
6257 7821 7822 28
6258 7821 7823 28
6259 7821 7824 28
6260 7821 7825 28
6261 7826 7827 28
6262 7826 7828 28
6263 7826 7829 28
6264 7826 7830 28
6265 7831 7832 28
6266 7831 7833 28
6267 7831 7834 28
6268 7831 7835 28
6269 7836 7837 28
6270 7836 7838 28
6271 7836 7839 28
6272 7836 7840 28
6273 7841 7842 28
6274 7841 7843 28
6275 7841 7844 28
6276 7841 7845 28
6277 7846 7847 28
6278 7846 7848 28
6279 7846 7849 28
6280 7846 7850 28
6281 7851 7852 28
6282 7851 7853 28
6283 7851 7854 28
6284 7851 7855 28
6285 7856 7857 28
6286 7856 7858 28
6287 7856 7859 28
6288 7856 7860 28
6289 7861 7862 28
6290 7861 7863 28
6291 7861 7864 28
6292 7861 7865 28
6293 7866 7867 28
6294 7866 7868 28
6295 7866 7869 28
6296 7866 7870 28
6297 7871 7872 28
6298 7871 7873 28
6299 7871 7874 28
6300 7871 7875 28
6301 7876 7877 28
6302 7876 7878 28
6303 7876 7879 28
6304 7876 7880 28
6305 7881 7882 28
6306 7881 7883 28
6307 7881 7884 28
6308 7881 7885 28
6309 7886 7887 28
6310 7886 7888 28
6311 7886 7889 28
6312 7886 7890 28
6313 7891 7892 28
6314 7891 7893 28
6315 7891 7894 28
6316 7891 7895 28
6317 7896 7897 28
6318 7896 7898 28
6319 7896 7899 28
6320 7896 7900 28
6321 7901 7902 28
6322 7901 7903 28
6323 7901 7904 28
6324 7901 7905 28
6325 7906 7907 28
6326 7906 7908 28
6327 7906 7909 28
6328 7906 7910 28
6329 7911 7912 28
6330 7911 7913 28
6331 7911 7914 28
6332 7911 7915 28
6333 7916 7917 28
6334 7916 7918 28
6335 7916 7919 28
6336 7916 7920 28
6337 7921 7922 28
6338 7921 7923 28
6339 7921 7924 28
6340 7921 7925 28
6341 7926 7927 28
6342 7926 7928 28
6343 7926 7929 28
6344 7926 7930 28
6345 7931 7932 28
6346 7931 7933 28
6347 7931 7934 28
6348 7931 7935 28
6349 7936 7937 28
6350 7936 7938 28
6351 7936 7939 28
6352 7936 7940 28
6353 7941 7942 28
6354 7941 7943 28
6355 7941 7944 28
6356 7941 7945 28
6357 7946 7947 28
6358 7946 7948 28
6359 7946 7949 28
6360 7946 7950 28
6361 7951 7952 28
6362 7951 7953 28
6363 7951 7954 28
6364 7951 7955 28
6365 7956 7957 28
6366 7956 7958 28
6367 7956 7959 28
6368 7956 7960 28
6369 7961 7962 28
6370 7961 7963 28
6371 7961 7964 28
6372 7961 7965 28
6373 7966 7967 28
6374 7966 7968 28
6375 7966 7969 28
6376 7966 7970 28
6377 7971 7972 28
6378 7971 7973 28
6379 7971 7974 28
6380 7971 7975 28
6381 7976 7977 28
6382 7976 7978 28
6383 7976 7979 28
6384 7976 7980 28
6385 7981 7982 28
6386 7981 7983 28
6387 7981 7984 28
6388 7981 7985 28
6389 7986 7987 28
6390 7986 7988 28
6391 7986 7989 28
6392 7986 7990 28
6393 7991 7992 28
6394 7991 7993 28
6395 7991 7994 28
6396 7991 7995 28
6397 7996 7997 28
6398 7996 7998 28
6399 7996 7999 28
6400 7996 8000 28
6401 8001 8002 28
6402 8001 8003 28
6403 8001 8004 28
6404 8001 8005 28
6405 8006 8007 28
6406 8006 8008 28
6407 8006 8009 28
6408 8006 8010 28
6409 8011 8012 28
6410 8011 8013 28
6411 8011 8014 28
6412 8011 8015 28
6413 8016 8017 28
6414 8016 8018 28
6415 8016 8019 28
6416 8016 8020 28
6417 8021 8022 28
6418 8021 8023 28
6419 8021 8024 28
6420 8021 8025 28
6421 8026 8027 28
6422 8026 8028 28
6423 8026 8029 28
6424 8026 8030 28
6425 8031 8032 28
6426 8031 8033 28
6427 8031 8034 28
6428 8031 8035 28
6429 8036 8037 28
6430 8036 8038 28
6431 8036 8039 28
6432 8036 8040 28
6433 8041 8042 28
6434 8041 8043 28
6435 8041 8044 28
6436 8041 8045 28
6437 8046 8047 28
6438 8046 8048 28
6439 8046 8049 28
6440 8046 8050 28
6441 8051 8052 28
6442 8051 8053 28
6443 8051 8054 28
6444 8051 8055 28
6445 8056 8057 28
6446 8056 8058 28
6447 8056 8059 28
6448 8056 8060 28
6449 8061 8062 28
6450 8061 8063 28
6451 8061 8064 28
6452 8061 8065 28
6453 8066 8067 28
6454 8066 8068 28
6455 8066 8069 28
6456 8066 8070 28
6457 8071 8072 28
6458 8071 8073 28
6459 8071 8074 28
6460 8071 8075 28
6461 8076 8077 28
6462 8076 8078 28
6463 8076 8079 28
6464 8076 8080 28
6465 8081 8082 28
6466 8081 8083 28
6467 8081 8084 28
6468 8081 8085 28
6469 8086 8087 28
6470 8086 8088 28
6471 8086 8089 28
6472 8086 8090 28
6473 8091 8092 28
6474 8091 8093 28
6475 8091 8094 28
6476 8091 8095 28
6477 8096 8097 28
6478 8096 8098 28
6479 8096 8099 28
6480 8096 8100 28
6481 8101 8102 28
6482 8101 8103 28
6483 8101 8104 28
6484 8101 8105 28
6485 8106 8107 28
6486 8106 8108 28
6487 8106 8109 28
6488 8106 8110 28
6489 8111 8112 28
6490 8111 8113 28
6491 8111 8114 28
6492 8111 8115 28
6493 8116 8117 28
6494 8116 8118 28
6495 8116 8119 28
6496 8116 8120 28
6497 8121 8122 28
6498 8121 8123 28
6499 8121 8124 28
6500 8121 8125 28
6501 8126 8127 28
6502 8126 8128 28
6503 8126 8129 28
6504 8126 8130 28
6505 8131 8132 28
6506 8131 8133 28
6507 8131 8134 28
6508 8131 8135 28
6509 8136 8137 28
6510 8136 8138 28
6511 8136 8139 28
6512 8136 8140 28
6513 8141 8142 28
6514 8141 8143 28
6515 8141 8144 28
6516 8141 8145 28
6517 8146 8147 28
6518 8146 8148 28
6519 8146 8149 28
6520 8146 8150 28
6521 8151 8152 28
6522 8151 8153 28
6523 8151 8154 28
6524 8151 8155 28
6525 8156 8157 28
6526 8156 8158 28
6527 8156 8159 28
6528 8156 8160 28
6529 8161 8162 28
6530 8161 8163 28
6531 8161 8164 28
6532 8161 8165 28
6533 8166 8167 28
6534 8166 8168 28
6535 8166 8169 28
6536 8166 8170 28
6537 8171 8172 28
6538 8171 8173 28
6539 8171 8174 28
6540 8171 8175 28
6541 8176 8177 28
6542 8176 8178 28
6543 8176 8179 28
6544 8176 8180 28
6545 8181 8182 28
6546 8181 8183 28
6547 8181 8184 28
6548 8181 8185 28
6549 8186 8187 28
6550 8186 8188 28
6551 8186 8189 28
6552 8186 8190 28
6553 8191 8192 28
6554 8191 8193 28
6555 8191 8194 28
6556 8191 8195 28
6557 8196 8197 28
6558 8196 8198 28
6559 8196 8199 28
6560 8196 8200 28
6561 8201 8202 28
6562 8201 8203 28
6563 8201 8204 28
6564 8201 8205 28
6565 8206 8207 28
6566 8206 8208 28
6567 8206 8209 28
6568 8206 8210 28
6569 8211 8212 28
6570 8211 8213 28
6571 8211 8214 28
6572 8211 8215 28
6573 8216 8217 28
6574 8216 8218 28
6575 8216 8219 28
6576 8216 8220 28
6577 8221 8222 28
6578 8221 8223 28
6579 8221 8224 28
6580 8221 8225 28
6581 8226 8227 28
6582 8226 8228 28
6583 8226 8229 28
6584 8226 8230 28
6585 8231 8232 28
6586 8231 8233 28
6587 8231 8234 28
6588 8231 8235 28
6589 8236 8237 28
6590 8236 8238 28
6591 8236 8239 28
6592 8236 8240 28
6593 8241 8242 28
6594 8241 8243 28
6595 8241 8244 28
6596 8241 8245 28
6597 8246 8247 28
6598 8246 8248 28
6599 8246 8249 28
6600 8246 8250 28
6601 8251 8252 28
6602 8251 8253 28
6603 8251 8254 28
6604 8251 8255 28
6605 8256 8257 28
6606 8256 8258 28
6607 8256 8259 28
6608 8256 8260 28
6609 8261 8262 28
6610 8261 8263 28
6611 8261 8264 28
6612 8261 8265 28
6613 8266 8267 28
6614 8266 8268 28
6615 8266 8269 28
6616 8266 8270 28
6617 8271 8272 28
6618 8271 8273 28
6619 8271 8274 28
6620 8271 8275 28
6621 8276 8277 28
6622 8276 8278 28
6623 8276 8279 28
6624 8276 8280 28
6625 8281 8282 28
6626 8281 8283 28
6627 8281 8284 28
6628 8281 8285 28
6629 8286 8287 28
6630 8286 8288 28
6631 8286 8289 28
6632 8286 8290 28
6633 8291 8292 28
6634 8291 8293 28
6635 8291 8294 28
6636 8291 8295 28
6637 8296 8297 28
6638 8296 8298 28
6639 8296 8299 28
6640 8296 8300 28
6641 8301 8302 28
6642 8301 8303 28
6643 8301 8304 28
6644 8301 8305 28
6645 8306 8307 28
6646 8306 8308 28
6647 8306 8309 28
6648 8306 8310 28
6649 8311 8312 28
6650 8311 8313 28
6651 8311 8314 28
6652 8311 8315 28
6653 8316 8317 28
6654 8316 8318 28
6655 8316 8319 28
6656 8316 8320 28
6657 8321 8322 28
6658 8321 8323 28
6659 8321 8324 28
6660 8321 8325 28
6661 8326 8327 28
6662 8326 8328 28
6663 8326 8329 28
6664 8326 8330 28
6665 8331 8332 28
6666 8331 8333 28
6667 8331 8334 28
6668 8331 8335 28
6669 8336 8337 28
6670 8336 8338 28
6671 8336 8339 28
6672 8336 8340 28
6673 8341 8342 28
6674 8341 8343 28
6675 8341 8344 28
6676 8341 8345 28
6677 8346 8347 28
6678 8346 8348 28
6679 8346 8349 28
6680 8346 8350 28
6681 8351 8352 28
6682 8351 8353 28
6683 8351 8354 28
6684 8351 8355 28
6685 8356 8357 28
6686 8356 8358 28
6687 8356 8359 28
6688 8356 8360 28
6689 8361 8362 28
6690 8361 8363 28
6691 8361 8364 28
6692 8361 8365 28
6693 8366 8367 28
6694 8366 8368 28
6695 8366 8369 28
6696 8366 8370 28
6697 8371 8372 28
6698 8371 8373 28
6699 8371 8374 28
6700 8371 8375 28
6701 8376 8377 28
6702 8376 8378 28
6703 8376 8379 28
6704 8376 8380 28
6705 8381 8382 28
6706 8381 8383 28
6707 8381 8384 28
6708 8381 8385 28
6709 8386 8387 28
6710 8386 8388 28
6711 8386 8389 28
6712 8386 8390 28
6713 8391 8392 28
6714 8391 8393 28
6715 8391 8394 28
6716 8391 8395 28
6717 8396 8397 28
6718 8396 8398 28
6719 8396 8399 28
6720 8396 8400 28
6721 8401 8402 28
6722 8401 8403 28
6723 8401 8404 28
6724 8401 8405 28
6725 8406 8407 28
6726 8406 8408 28
6727 8406 8409 28
6728 8406 8410 28
6729 8411 8412 28
6730 8411 8413 28
6731 8411 8414 28
6732 8411 8415 28
6733 8416 8417 28
6734 8416 8418 28
6735 8416 8419 28
6736 8416 8420 28
6737 8421 8422 28
6738 8421 8423 28
6739 8421 8424 28
6740 8421 8425 28
6741 8426 8427 28
6742 8426 8428 28
6743 8426 8429 28
6744 8426 8430 28
6745 8431 8432 28
6746 8431 8433 28
6747 8431 8434 28
6748 8431 8435 28
6749 8436 8437 28
6750 8436 8438 28
6751 8436 8439 28
6752 8436 8440 28
6753 8441 8442 28
6754 8441 8443 28
6755 8441 8444 28
6756 8441 8445 28
6757 8446 8447 28
6758 8446 8448 28
6759 8446 8449 28
6760 8446 8450 28
6761 8451 8452 28
6762 8451 8453 28
6763 8451 8454 28
6764 8451 8455 28
6765 8456 8457 28
6766 8456 8458 28
6767 8456 8459 28
6768 8456 8460 28
6769 8461 8462 28
6770 8461 8463 28
6771 8461 8464 28
6772 8461 8465 28
6773 8466 8467 28
6774 8466 8468 28
6775 8466 8469 28
6776 8466 8470 28
6777 8471 8472 28
6778 8471 8473 28
6779 8471 8474 28
6780 8471 8475 28
6781 8476 8477 28
6782 8476 8478 28
6783 8476 8479 28
6784 8476 8480 28
6785 8481 8482 28
6786 8481 8483 28
6787 8481 8484 28
6788 8481 8485 28
6789 8486 8487 28
6790 8486 8488 28
6791 8486 8489 28
6792 8486 8490 28
6793 8491 8492 28
6794 8491 8493 28
6795 8491 8494 28
6796 8491 8495 28
6797 8496 8497 28
6798 8496 8498 28
6799 8496 8499 28
6800 8496 8500 28
6801 8501 8502 28
6802 8501 8503 28
6803 8501 8504 28
6804 8501 8505 28
6805 8506 8507 28
6806 8506 8508 28
6807 8506 8509 28
6808 8506 8510 28
6809 8511 8512 28
6810 8511 8513 28
6811 8511 8514 28
6812 8511 8515 28
6813 8516 8517 28
6814 8516 8518 28
6815 8516 8519 28
6816 8516 8520 28
6817 8521 8522 28
6818 8521 8523 28
6819 8521 8524 28
6820 8521 8525 28
6821 8526 8527 28
6822 8526 8528 28
6823 8526 8529 28
6824 8526 8530 28
6825 8531 8532 28
6826 8531 8533 28
6827 8531 8534 28
6828 8531 8535 28
6829 8536 8537 28
6830 8536 8538 28
6831 8536 8539 28
6832 8536 8540 28
6833 8541 8542 28
6834 8541 8543 28
6835 8541 8544 28
6836 8541 8545 28
6837 8546 8547 28
6838 8546 8548 28
6839 8546 8549 28
6840 8546 8550 28
6841 8551 8552 28
6842 8551 8553 28
6843 8551 8554 28
6844 8551 8555 28
6845 8556 8557 28
6846 8556 8558 28
6847 8556 8559 28
6848 8556 8560 28
6849 8561 8562 28
6850 8561 8563 28
6851 8561 8564 28
6852 8561 8565 28
6853 8566 8567 28
6854 8566 8568 28
6855 8566 8569 28
6856 8566 8570 28
6857 8571 8572 28
6858 8571 8573 28
6859 8571 8574 28
6860 8571 8575 28
6861 8576 8577 28
6862 8576 8578 28
6863 8576 8579 28
6864 8576 8580 28
6865 8581 8582 28
6866 8581 8583 28
6867 8581 8584 28
6868 8581 8585 28
6869 8586 8587 28
6870 8586 8588 28
6871 8586 8589 28
6872 8586 8590 28
6873 8591 8592 28
6874 8591 8593 28
6875 8591 8594 28
6876 8591 8595 28
6877 8596 8597 28
6878 8596 8598 28
6879 8596 8599 28
6880 8596 8600 28
6881 8601 8602 28
6882 8601 8603 28
6883 8601 8604 28
6884 8601 8605 28
6885 8606 8607 28
6886 8606 8608 28
6887 8606 8609 28
6888 8606 8610 28
6889 8611 8612 28
6890 8611 8613 28
6891 8611 8614 28
6892 8611 8615 28
6893 8616 8617 28
6894 8616 8618 28
6895 8616 8619 28
6896 8616 8620 28
6897 8621 8622 28
6898 8621 8623 28
6899 8621 8624 28
6900 8621 8625 28
6901 8626 8627 28
6902 8626 8628 28
6903 8626 8629 28
6904 8626 8630 28
6905 8631 8632 28
6906 8631 8633 28
6907 8631 8634 28
6908 8631 8635 28
6909 8636 8637 28
6910 8636 8638 28
6911 8636 8639 28
6912 8636 8640 28
6913 8641 8642 28
6914 8641 8643 28
6915 8641 8644 28
6916 8641 8645 28
6917 8646 8647 28
6918 8646 8648 28
6919 8646 8649 28
6920 8646 8650 28
6921 8651 8652 28
6922 8651 8653 28
6923 8651 8654 28
6924 8651 8655 28
6925 8656 8657 28
6926 8656 8658 28
6927 8656 8659 28
6928 8656 8660 28
6929 8661 8662 28
6930 8661 8663 28
6931 8661 8664 28
6932 8661 8665 28
6933 8666 8667 28
6934 8666 8668 28
6935 8666 8669 28
6936 8666 8670 28
6937 8671 8672 28
6938 8671 8673 28
6939 8671 8674 28
6940 8671 8675 28
6941 8676 8677 28
6942 8676 8678 28
6943 8676 8679 28
6944 8676 8680 28
6945 8681 8682 28
6946 8681 8683 28
6947 8681 8684 28
6948 8681 8685 28
6949 8686 8687 28
6950 8686 8688 28
6951 8686 8689 28
6952 8686 8690 28
6953 8691 8692 28
6954 8691 8693 28
6955 8691 8694 28
6956 8691 8695 28
6957 8696 8697 28
6958 8696 8698 28
6959 8696 8699 28
6960 8696 8700 28
6961 8701 8702 28
6962 8701 8703 28
6963 8701 8704 28
6964 8701 8705 28
6965 8706 8707 28
6966 8706 8708 28
6967 8706 8709 28
6968 8706 8710 28
6969 8711 8712 28
6970 8711 8713 28
6971 8711 8714 28
6972 8711 8715 28
6973 8716 8717 28
6974 8716 8718 28
6975 8716 8719 28
6976 8716 8720 28
6977 8721 8722 28
6978 8721 8723 28
6979 8721 8724 28
6980 8721 8725 28
6981 8726 8727 28
6982 8726 8728 28
6983 8726 8729 28
6984 8726 8730 28
6985 8731 8732 28
6986 8731 8733 28
6987 8731 8734 28
6988 8731 8735 28
6989 8736 8737 28
6990 8736 8738 28
6991 8736 8739 28
6992 8736 8740 28
6993 8741 8742 28
6994 8741 8743 28
6995 8741 8744 28
6996 8741 8745 28
6997 8746 8747 28
6998 8746 8748 28
6999 8746 8749 28
7000 8746 8750 28
7001 8751 8752 28
7002 8751 8753 28
7003 8751 8754 28
7004 8751 8755 28
7005 8756 8757 28
7006 8756 8758 28
7007 8756 8759 28
7008 8756 8760 28
7009 8761 8762 28
7010 8761 8763 28
7011 8761 8764 28
7012 8761 8765 28
7013 8766 8767 28
7014 8766 8768 28
7015 8766 8769 28
7016 8766 8770 28
7017 8771 8772 28
7018 8771 8773 28
7019 8771 8774 28
7020 8771 8775 28
7021 8776 8777 28
7022 8776 8778 28
7023 8776 8779 28
7024 8776 8780 28
7025 8781 8782 28
7026 8781 8783 28
7027 8781 8784 28
7028 8781 8785 28
7029 8786 8787 28
7030 8786 8788 28
7031 8786 8789 28
7032 8786 8790 28
7033 8791 8792 28
7034 8791 8793 28
7035 8791 8794 28
7036 8791 8795 28
7037 8796 8797 28
7038 8796 8798 28
7039 8796 8799 28
7040 8796 8800 28
7041 8801 8802 28
7042 8801 8803 28
7043 8801 8804 28
7044 8801 8805 28
7045 8806 8807 28
7046 8806 8808 28
7047 8806 8809 28
7048 8806 8810 28
7049 8811 8812 28
7050 8811 8813 28
7051 8811 8814 28
7052 8811 8815 28
7053 8816 8817 28
7054 8816 8818 28
7055 8816 8819 28
7056 8816 8820 28
7057 8821 8822 28
7058 8821 8823 28
7059 8821 8824 28
7060 8821 8825 28
7061 8826 8827 28
7062 8826 8828 28
7063 8826 8829 28
7064 8826 8830 28
7065 8831 8832 28
7066 8831 8833 28
7067 8831 8834 28
7068 8831 8835 28
7069 8836 8837 28
7070 8836 8838 28
7071 8836 8839 28
7072 8836 8840 28
7073 8841 8842 28
7074 8841 8843 28
7075 8841 8844 28
7076 8841 8845 28
7077 8846 8847 28
7078 8846 8848 28
7079 8846 8849 28
7080 8846 8850 28
7081 8851 8852 28
7082 8851 8853 28
7083 8851 8854 28
7084 8851 8855 28
7085 8856 8857 28
7086 8856 8858 28
7087 8856 8859 28
7088 8856 8860 28
7089 8861 8862 28
7090 8861 8863 28
7091 8861 8864 28
7092 8861 8865 28
7093 8866 8867 28
7094 8866 8868 28
7095 8866 8869 28
7096 8866 8870 28
7097 8871 8872 28
7098 8871 8873 28
7099 8871 8874 28
7100 8871 8875 28
7101 8876 8877 28
7102 8876 8878 28
7103 8876 8879 28
7104 8876 8880 28
7105 8881 8882 28
7106 8881 8883 28
7107 8881 8884 28
7108 8881 8885 28
7109 8886 8887 28
7110 8886 8888 28
7111 8886 8889 28
7112 8886 8890 28
7113 8891 8892 28
7114 8891 8893 28
7115 8891 8894 28
7116 8891 8895 28
7117 8896 8897 28
7118 8896 8898 28
7119 8896 8899 28
7120 8896 8900 28
7121 8901 8902 28
7122 8901 8903 28
7123 8901 8904 28
7124 8901 8905 28
7125 8906 8907 28
7126 8906 8908 28
7127 8906 8909 28
7128 8906 8910 28
7129 8911 8912 28
7130 8911 8913 28
7131 8911 8914 28
7132 8911 8915 28
7133 8916 8917 28
7134 8916 8918 28
7135 8916 8919 28
7136 8916 8920 28
7137 8921 8922 28
7138 8921 8923 28
7139 8921 8924 28
7140 8921 8925 28
7141 8926 8927 28
7142 8926 8928 28
7143 8926 8929 28
7144 8926 8930 28
7145 8931 8932 28
7146 8931 8933 28
7147 8931 8934 28
7148 8931 8935 28
7149 8936 8937 28
7150 8936 8938 28
7151 8936 8939 28
7152 8936 8940 28
7153 8941 8942 28
7154 8941 8943 28
7155 8941 8944 28
7156 8941 8945 28
7157 8946 8947 28
7158 8946 8948 28
7159 8946 8949 28
7160 8946 8950 28
7161 8951 8952 28
7162 8951 8953 28
7163 8951 8954 28
7164 8951 8955 28
7165 8956 8957 28
7166 8956 8958 28
7167 8956 8959 28
7168 8956 8960 28
7169 8961 8962 28
7170 8961 8963 28
7171 8961 8964 28
7172 8961 8965 28
7173 8966 8967 28
7174 8966 8968 28
7175 8966 8969 28
7176 8966 8970 28
7177 8971 8972 28
7178 8971 8973 28
7179 8971 8974 28
7180 8971 8975 28
7181 8976 8977 28
7182 8976 8978 28
7183 8976 8979 28
7184 8976 8980 28
7185 8981 8982 28
7186 8981 8983 28
7187 8981 8984 28
7188 8981 8985 28
7189 8986 8987 28
7190 8986 8988 28
7191 8986 8989 28
7192 8986 8990 28
7193 8991 8992 28
7194 8991 8993 28
7195 8991 8994 28
7196 8991 8995 28
7197 8996 8997 28
7198 8996 8998 28
7199 8996 8999 28
7200 8996 9000 28
7201 9001 9002 28
7202 9001 9003 28
7203 9001 9004 28
7204 9001 9005 28
7205 9006 9007 28
7206 9006 9008 28
7207 9006 9009 28
7208 9006 9010 28
7209 9011 9012 28
7210 9011 9013 28
7211 9011 9014 28
7212 9011 9015 28
7213 9016 9017 28
7214 9016 9018 28
7215 9016 9019 28
7216 9016 9020 28
7217 9021 9022 28
7218 9021 9023 28
7219 9021 9024 28
7220 9021 9025 28
7221 9026 9027 28
7222 9026 9028 28
7223 9026 9029 28
7224 9026 9030 28
7225 9031 9032 28
7226 9031 9033 28
7227 9031 9034 28
7228 9031 9035 28
7229 9036 9037 28
7230 9036 9038 28
7231 9036 9039 28
7232 9036 9040 28
7233 9041 9042 28
7234 9041 9043 28
7235 9041 9044 28
7236 9041 9045 28
7237 9046 9047 28
7238 9046 9048 28
7239 9046 9049 28
7240 9046 9050 28
7241 9051 9052 28
7242 9051 9053 28
7243 9051 9054 28
7244 9051 9055 28
7245 9056 9057 28
7246 9056 9058 28
7247 9056 9059 28
7248 9056 9060 28
7249 9061 9062 28
7250 9061 9063 28
7251 9061 9064 28
7252 9061 9065 28
7253 9066 9067 28
7254 9066 9068 28
7255 9066 9069 28
7256 9066 9070 28
7257 9071 9072 28
7258 9071 9073 28
7259 9071 9074 28
7260 9071 9075 28
7261 9076 9077 28
7262 9076 9078 28
7263 9076 9079 28
7264 9076 9080 28
7265 9081 9082 28
7266 9081 9083 28
7267 9081 9084 28
7268 9081 9085 28
7269 9086 9087 28
7270 9086 9088 28
7271 9086 9089 28
7272 9086 9090 28
7273 9091 9092 28
7274 9091 9093 28
7275 9091 9094 28
7276 9091 9095 28
7277 9096 9097 28
7278 9096 9098 28
7279 9096 9099 28
7280 9096 9100 28
7281 9101 9102 28
7282 9101 9103 28
7283 9101 9104 28
7284 9101 9105 28
7285 9106 9107 28
7286 9106 9108 28
7287 9106 9109 28
7288 9106 9110 28
7289 9111 9112 28
7290 9111 9113 28
7291 9111 9114 28
7292 9111 9115 28
7293 9116 9117 28
7294 9116 9118 28
7295 9116 9119 28
7296 9116 9120 28
7297 9121 9122 28
7298 9121 9123 28
7299 9121 9124 28
7300 9121 9125 28
7301 9126 9127 28
7302 9126 9128 28
7303 9126 9129 28
7304 9126 9130 28
7305 9131 9132 28
7306 9131 9133 28
7307 9131 9134 28
7308 9131 9135 28
7309 9136 9137 28
7310 9136 9138 28
7311 9136 9139 28
7312 9136 9140 28
7313 9141 9142 28
7314 9141 9143 28
7315 9141 9144 28
7316 9141 9145 28
7317 9146 9147 28
7318 9146 9148 28
7319 9146 9149 28
7320 9146 9150 28
7321 9151 9152 28
7322 9151 9153 28
7323 9151 9154 28
7324 9151 9155 28
7325 9156 9157 28
7326 9156 9158 28
7327 9156 9159 28
7328 9156 9160 28
7329 9161 9162 28
7330 9161 9163 28
7331 9161 9164 28
7332 9161 9165 28
7333 9166 9167 28
7334 9166 9168 28
7335 9166 9169 28
7336 9166 9170 28
7337 9171 9172 28
7338 9171 9173 28
7339 9171 9174 28
7340 9171 9175 28
7341 9176 9177 28
7342 9176 9178 28
7343 9176 9179 28
7344 9176 9180 28
7345 9181 9182 28
7346 9181 9183 28
7347 9181 9184 28
7348 9181 9185 28
7349 9186 9187 28
7350 9186 9188 28
7351 9186 9189 28
7352 9186 9190 28
7353 9191 9192 28
7354 9191 9193 28
7355 9191 9194 28
7356 9191 9195 28
7357 9196 9197 28
7358 9196 9198 28
7359 9196 9199 28
7360 9196 9200 28
7361 9201 9202 28
7362 9201 9203 28
7363 9201 9204 28
7364 9201 9205 28
7365 9206 9207 28
7366 9206 9208 28
7367 9206 9209 28
7368 9206 9210 28
7369 9211 9212 28
7370 9211 9213 28
7371 9211 9214 28
7372 9211 9215 28
7373 9216 9217 28
7374 9216 9218 28
7375 9216 9219 28
7376 9216 9220 28
7377 9221 9222 28
7378 9221 9223 28
7379 9221 9224 28
7380 9221 9225 28
7381 9226 9227 28
7382 9226 9228 28
7383 9226 9229 28
7384 9226 9230 28
7385 9231 9232 28
7386 9231 9233 28
7387 9231 9234 28
7388 9231 9235 28
7389 9236 9237 28
7390 9236 9238 28
7391 9236 9239 28
7392 9236 9240 28
7393 9241 9242 28
7394 9241 9243 28
7395 9241 9244 28
7396 9241 9245 28
7397 9246 9247 28
7398 9246 9248 28
7399 9246 9249 28
7400 9246 9250 28
7401 9251 9252 28
7402 9251 9253 28
7403 9251 9254 28
7404 9251 9255 28
7405 9256 9257 28
7406 9256 9258 28
7407 9256 9259 28
7408 9256 9260 28
7409 9261 9262 28
7410 9261 9263 28
7411 9261 9264 28
7412 9261 9265 28
7413 9266 9267 28
7414 9266 9268 28
7415 9266 9269 28
7416 9266 9270 28
7417 9271 9272 28
7418 9271 9273 28
7419 9271 9274 28
7420 9271 9275 28
7421 9276 9277 28
7422 9276 9278 28
7423 9276 9279 28
7424 9276 9280 28
7425 9281 9282 28
7426 9281 9283 28
7427 9281 9284 28
7428 9281 9285 28
7429 9286 9287 28
7430 9286 9288 28
7431 9286 9289 28
7432 9286 9290 28
7433 9291 9292 28
7434 9291 9293 28
7435 9291 9294 28
7436 9291 9295 28
7437 9296 9297 28
7438 9296 9298 28
7439 9296 9299 28
7440 9296 9300 28
7441 9301 9302 28
7442 9301 9303 28
7443 9301 9304 28
7444 9301 9305 28
7445 9306 9307 28
7446 9306 9308 28
7447 9306 9309 28
7448 9306 9310 28
7449 9311 9312 28
7450 9311 9313 28
7451 9311 9314 28
7452 9311 9315 28
7453 9316 9317 28
7454 9316 9318 28
7455 9316 9319 28
7456 9316 9320 28
7457 9321 9322 28
7458 9321 9323 28
7459 9321 9324 28
7460 9321 9325 28
7461 9326 9327 28
7462 9326 9328 28
7463 9326 9329 28
7464 9326 9330 28
7465 9331 9332 28
7466 9331 9333 28
7467 9331 9334 28
7468 9331 9335 28
7469 9336 9337 28
7470 9336 9338 28
7471 9336 9339 28
7472 9336 9340 28
7473 9341 9342 28
7474 9341 9343 28
7475 9341 9344 28
7476 9341 9345 28
7477 9346 9347 28
7478 9346 9348 28
7479 9346 9349 28
7480 9346 9350 28
7481 9351 9352 28
7482 9351 9353 28
7483 9351 9354 28
7484 9351 9355 28
7485 9356 9357 28
7486 9356 9358 28
7487 9356 9359 28
7488 9356 9360 28
7489 9361 9362 28
7490 9361 9363 28
7491 9361 9364 28
7492 9361 9365 28
7493 9366 9367 28
7494 9366 9368 28
7495 9366 9369 28
7496 9366 9370 28
7497 9371 9372 28
7498 9371 9373 28
7499 9371 9374 28
7500 9371 9375 28
7501 9376 9377 28
7502 9376 9378 28
7503 9376 9379 28
7504 9376 9380 28
7505 9381 9382 28
7506 9381 9383 28
7507 9381 9384 28
7508 9381 9385 28
7509 9386 9387 28
7510 9386 9388 28
7511 9386 9389 28
7512 9386 9390 28
7513 9391 9392 28
7514 9391 9393 28
7515 9391 9394 28
7516 9391 9395 28
7517 9396 9397 28
7518 9396 9398 28
7519 9396 9399 28
7520 9396 9400 28
7521 9401 9402 28
7522 9401 9403 28
7523 9401 9404 28
7524 9401 9405 28
7525 9406 9407 28
7526 9406 9408 28
7527 9406 9409 28
7528 9406 9410 28
7529 9411 9412 28
7530 9411 9413 28
7531 9411 9414 28
7532 9411 9415 28
7533 9416 9417 28
7534 9416 9418 28
7535 9416 9419 28
7536 9416 9420 28
7537 9421 9422 28
7538 9421 9423 28
7539 9421 9424 28
7540 9421 9425 28
7541 9426 9427 28
7542 9426 9428 28
7543 9426 9429 28
7544 9426 9430 28
7545 9431 9432 28
7546 9431 9433 28
7547 9431 9434 28
7548 9431 9435 28
7549 9436 9437 28
7550 9436 9438 28
7551 9436 9439 28
7552 9436 9440 28
7553 9441 9442 28
7554 9441 9443 28
7555 9441 9444 28
7556 9441 9445 28
7557 9446 9447 28
7558 9446 9448 28
7559 9446 9449 28
7560 9446 9450 28
7561 9451 9452 28
7562 9451 9453 28
7563 9451 9454 28
7564 9451 9455 28
7565 9456 9457 28
7566 9456 9458 28
7567 9456 9459 28
7568 9456 9460 28
7569 9461 9462 28
7570 9461 9463 28
7571 9461 9464 28
7572 9461 9465 28
7573 9466 9467 28
7574 9466 9468 28
7575 9466 9469 28
7576 9466 9470 28
7577 9471 9472 28
7578 9471 9473 28
7579 9471 9474 28
7580 9471 9475 28
7581 9476 9477 28
7582 9476 9478 28
7583 9476 9479 28
7584 9476 9480 28
7585 9481 9482 28
7586 9481 9483 28
7587 9481 9484 28
7588 9481 9485 28
7589 9486 9487 28
7590 9486 9488 28
7591 9486 9489 28
7592 9486 9490 28
7593 9491 9492 28
7594 9491 9493 28
7595 9491 9494 28
7596 9491 9495 28
7597 9496 9497 28
7598 9496 9498 28
7599 9496 9499 28
7600 9496 9500 28
7601 9501 9502 28
7602 9501 9503 28
7603 9501 9504 28
7604 9501 9505 28
7605 9506 9507 28
7606 9506 9508 28
7607 9506 9509 28
7608 9506 9510 28
7609 9511 9512 28
7610 9511 9513 28
7611 9511 9514 28
7612 9511 9515 28
7613 9516 9517 28
7614 9516 9518 28
7615 9516 9519 28
7616 9516 9520 28
7617 9521 9522 28
7618 9521 9523 28
7619 9521 9524 28
7620 9521 9525 28
7621 9526 9527 28
7622 9526 9528 28
7623 9526 9529 28
7624 9526 9530 28
7625 9531 9532 28
7626 9531 9533 28
7627 9531 9534 28
7628 9531 9535 28
7629 9536 9537 28
7630 9536 9538 28
7631 9536 9539 28
7632 9536 9540 28
7633 9541 9542 28
7634 9541 9543 28
7635 9541 9544 28
7636 9541 9545 28
7637 9546 9547 28
7638 9546 9548 28
7639 9546 9549 28
7640 9546 9550 28
7641 9551 9552 28
7642 9551 9553 28
7643 9551 9554 28
7644 9551 9555 28
7645 9556 9557 28
7646 9556 9558 28
7647 9556 9559 28
7648 9556 9560 28
7649 9561 9562 28
7650 9561 9563 28
7651 9561 9564 28
7652 9561 9565 28
7653 9566 9567 28
7654 9566 9568 28
7655 9566 9569 28
7656 9566 9570 28
7657 9571 9572 28
7658 9571 9573 28
7659 9571 9574 28
7660 9571 9575 28
7661 9576 9577 28
7662 9576 9578 28
7663 9576 9579 28
7664 9576 9580 28
7665 9581 9582 28
7666 9581 9583 28
7667 9581 9584 28
7668 9581 9585 28
7669 9586 9587 28
7670 9586 9588 28
7671 9586 9589 28
7672 9586 9590 28
7673 9591 9592 28
7674 9591 9593 28
7675 9591 9594 28
7676 9591 9595 28
7677 9596 9597 28
7678 9596 9598 28
7679 9596 9599 28
7680 9596 9600 28
7681 9601 9602 28
7682 9601 9603 28
7683 9601 9604 28
7684 9601 9605 28
7685 9606 9607 28
7686 9606 9608 28
7687 9606 9609 28
7688 9606 9610 28
7689 9611 9612 28
7690 9611 9613 28
7691 9611 9614 28
7692 9611 9615 28
7693 9616 9617 28
7694 9616 9618 28
7695 9616 9619 28
7696 9616 9620 28
7697 9621 9622 28
7698 9621 9623 28
7699 9621 9624 28
7700 9621 9625 28
7701 9626 9627 28
7702 9626 9628 28
7703 9626 9629 28
7704 9626 9630 28
7705 9631 9632 28
7706 9631 9633 28
7707 9631 9634 28
7708 9631 9635 28
7709 9636 9637 28
7710 9636 9638 28
7711 9636 9639 28
7712 9636 9640 28
7713 9641 9642 28
7714 9641 9643 28
7715 9641 9644 28
7716 9641 9645 28
7717 9646 9647 28
7718 9646 9648 28
7719 9646 9649 28
7720 9646 9650 28
7721 9651 9652 28
7722 9651 9653 28
7723 9651 9654 28
7724 9651 9655 28
7725 9656 9657 28
7726 9656 9658 28
7727 9656 9659 28
7728 9656 9660 28
7729 9661 9662 28
7730 9661 9663 28
7731 9661 9664 28
7732 9661 9665 28
7733 9666 9667 28
7734 9666 9668 28
7735 9666 9669 28
7736 9666 9670 28
7737 9671 9672 28
7738 9671 9673 28
7739 9671 9674 28
7740 9671 9675 28
7741 9676 9677 28
7742 9676 9678 28
7743 9676 9679 28
7744 9676 9680 28
7745 9681 9682 28
7746 9681 9683 28
7747 9681 9684 28
7748 9681 9685 28
7749 9686 9687 28
7750 9686 9688 28
7751 9686 9689 28
7752 9686 9690 28
7753 9691 9692 28
7754 9691 9693 28
7755 9691 9694 28
7756 9691 9695 28
7757 9696 9697 28
7758 9696 9698 28
7759 9696 9699 28
7760 9696 9700 28
7761 9701 9702 28
7762 9701 9703 28
7763 9701 9704 28
7764 9701 9705 28
7765 9706 9707 28
7766 9706 9708 28
7767 9706 9709 28
7768 9706 9710 28
7769 9711 9712 28
7770 9711 9713 28
7771 9711 9714 28
7772 9711 9715 28
7773 9716 9717 28
7774 9716 9718 28
7775 9716 9719 28
7776 9716 9720 28
7777 9721 9722 28
7778 9721 9723 28
7779 9721 9724 28
7780 9721 9725 28
7781 9726 9727 28
7782 9726 9728 28
7783 9726 9729 28
7784 9726 9730 28
7785 9731 9732 28
7786 9731 9733 28
7787 9731 9734 28
7788 9731 9735 28
7789 9736 9737 28
7790 9736 9738 28
7791 9736 9739 28
7792 9736 9740 28
7793 9741 9742 28
7794 9741 9743 28
7795 9741 9744 28
7796 9741 9745 28
7797 9746 9747 28
7798 9746 9748 28
7799 9746 9749 28
7800 9746 9750 28
7801 9751 9752 28
7802 9751 9753 28
7803 9751 9754 28
7804 9751 9755 28
7805 9756 9757 28
7806 9756 9758 28
7807 9756 9759 28
7808 9756 9760 28
7809 9761 9762 28
7810 9761 9763 28
7811 9761 9764 28
7812 9761 9765 28
7813 9766 9767 28
7814 9766 9768 28
7815 9766 9769 28
7816 9766 9770 28
7817 9771 9772 28
7818 9771 9773 28
7819 9771 9774 28
7820 9771 9775 28
7821 9776 9777 28
7822 9776 9778 28
7823 9776 9779 28
7824 9776 9780 28
7825 9781 9782 28
7826 9781 9783 28
7827 9781 9784 28
7828 9781 9785 28
7829 9786 9787 28
7830 9786 9788 28
7831 9786 9789 28
7832 9786 9790 28
7833 9791 9792 28
7834 9791 9793 28
7835 9791 9794 28
7836 9791 9795 28
7837 9796 9797 28
7838 9796 9798 28
7839 9796 9799 28
7840 9796 9800 28
7841 9801 9802 28
7842 9801 9803 28
7843 9801 9804 28
7844 9801 9805 28
7845 9806 9807 28
7846 9806 9808 28
7847 9806 9809 28
7848 9806 9810 28
7849 9811 9812 28
7850 9811 9813 28
7851 9811 9814 28
7852 9811 9815 28
7853 9816 9817 28
7854 9816 9818 28
7855 9816 9819 28
7856 9816 9820 28
7857 9821 9822 28
7858 9821 9823 28
7859 9821 9824 28
7860 9821 9825 28
7861 9826 9827 28
7862 9826 9828 28
7863 9826 9829 28
7864 9826 9830 28
7865 9831 9832 28
7866 9831 9833 28
7867 9831 9834 28
7868 9831 9835 28
7869 9836 9837 28
7870 9836 9838 28
7871 9836 9839 28
7872 9836 9840 28
7873 9841 9842 28
7874 9841 9843 28
7875 9841 9844 28
7876 9841 9845 28
7877 9846 9847 28
7878 9846 9848 28
7879 9846 9849 28
7880 9846 9850 28
7881 9851 9852 28
7882 9851 9853 28
7883 9851 9854 28
7884 9851 9855 28
7885 9856 9857 28
7886 9856 9858 28
7887 9856 9859 28
7888 9856 9860 28
7889 9861 9862 28
7890 9861 9863 28
7891 9861 9864 28
7892 9861 9865 28
7893 9866 9867 28
7894 9866 9868 28
7895 9866 9869 28
7896 9866 9870 28
7897 9871 9872 28
7898 9871 9873 28
7899 9871 9874 28
7900 9871 9875 28
7901 9876 9877 28
7902 9876 9878 28
7903 9876 9879 28
7904 9876 9880 28
7905 9881 9882 28
7906 9881 9883 28
7907 9881 9884 28
7908 9881 9885 28
7909 9886 9887 28
7910 9886 9888 28
7911 9886 9889 28
7912 9886 9890 28
7913 9891 9892 28
7914 9891 9893 28
7915 9891 9894 28
7916 9891 9895 28
7917 9896 9897 28
7918 9896 9898 28
7919 9896 9899 28
7920 9896 9900 28
7921 9901 9902 28
7922 9901 9903 28
7923 9901 9904 28
7924 9901 9905 28
7925 9906 9907 28
7926 9906 9908 28
7927 9906 9909 28
7928 9906 9910 28
7929 9911 9912 28
7930 9911 9913 28
7931 9911 9914 28
7932 9911 9915 28
7933 9916 9917 28
7934 9916 9918 28
7935 9916 9919 28
7936 9916 9920 28
7937 9921 9922 28
7938 9921 9923 28
7939 9921 9924 28
7940 9921 9925 28
7941 9926 9927 28
7942 9926 9928 28
7943 9926 9929 28
7944 9926 9930 28
7945 9931 9932 28
7946 9931 9933 28
7947 9931 9934 28
7948 9931 9935 28
7949 9936 9937 28
7950 9936 9938 28
7951 9936 9939 28
7952 9936 9940 28
7953 9941 9942 28
7954 9941 9943 28
7955 9941 9944 28
7956 9941 9945 28
7957 9946 9947 28
7958 9946 9948 28
7959 9946 9949 28
7960 9946 9950 28
7961 9951 9952 28
7962 9951 9953 28
7963 9951 9954 28
7964 9951 9955 28
7965 9956 9957 28
7966 9956 9958 28
7967 9956 9959 28
7968 9956 9960 28
7969 9961 9962 28
7970 9961 9963 28
7971 9961 9964 28
7972 9961 9965 28
7973 9966 9967 28
7974 9966 9968 28
7975 9966 9969 28
7976 9966 9970 28
7977 9971 9972 28
7978 9971 9973 28
7979 9971 9974 28
7980 9971 9975 28
7981 9976 9977 28
7982 9976 9978 28
7983 9976 9979 28
7984 9976 9980 28
7985 9981 9982 28
7986 9981 9983 28
7987 9981 9984 28
7988 9981 9985 28
7989 9986 9987 28
7990 9986 9988 28
7991 9986 9989 28
7992 9986 9990 28
7993 9991 9992 28
7994 9991 9993 28
7995 9991 9994 28
7996 9991 9995 28
7997 9996 9997 28
7998 9996 9998 28
7999 9996 9999 28
8000 9996 10000 28
8001 10001 10002 28
8002 10001 10003 28
8003 10001 10004 28
8004 10001 10005 28
8005 10006 10007 28
8006 10006 10008 28
8007 10006 10009 28
8008 10006 10010 28
8009 10011 10012 28
8010 10011 10013 28
8011 10011 10014 28
8012 10011 10015 28
8013 10016 10017 28
8014 10016 10018 28
8015 10016 10019 28
8016 10016 10020 28
8017 10021 10022 28
8018 10021 10023 28
8019 10021 10024 28
8020 10021 10025 28
8021 10026 10027 28
8022 10026 10028 28
8023 10026 10029 28
8024 10026 10030 28
8025 10031 10032 28
8026 10031 10033 28
8027 10031 10034 28
8028 10031 10035 28
8029 10036 10037 28
8030 10036 10038 28
8031 10036 10039 28
8032 10036 10040 28
8033 10041 10042 28
8034 10041 10043 28
8035 10041 10044 28
8036 10041 10045 28
8037 10046 10047 28
8038 10046 10048 28
8039 10046 10049 28
8040 10046 10050 28
8041 10051 10052 28
8042 10051 10053 28
8043 10051 10054 28
8044 10051 10055 28
8045 10056 10057 28
8046 10056 10058 28
8047 10056 10059 28
8048 10056 10060 28
8049 10061 10062 28
8050 10061 10063 28
8051 10061 10064 28
8052 10061 10065 28
8053 10066 10067 28
8054 10066 10068 28
8055 10066 10069 28
8056 10066 10070 28
8057 10071 10072 28
8058 10071 10073 28
8059 10071 10074 28
8060 10071 10075 28
8061 10076 10077 28
8062 10076 10078 28
8063 10076 10079 28
8064 10076 10080 28
8065 10081 10082 28
8066 10081 10083 28
8067 10081 10084 28
8068 10081 10085 28
8069 10086 10087 28
8070 10086 10088 28
8071 10086 10089 28
8072 10086 10090 28
8073 10091 10092 28
8074 10091 10093 28
8075 10091 10094 28
8076 10091 10095 28
8077 10096 10097 28
8078 10096 10098 28
8079 10096 10099 28
8080 10096 10100 28
8081 10101 10102 28
8082 10101 10103 28
8083 10101 10104 28
8084 10101 10105 28
8085 10106 10107 28
8086 10106 10108 28
8087 10106 10109 28
8088 10106 10110 28
8089 10111 10112 28
8090 10111 10113 28
8091 10111 10114 28
8092 10111 10115 28
8093 10116 10117 28
8094 10116 10118 28
8095 10116 10119 28
8096 10116 10120 28
8097 10121 10122 28
8098 10121 10123 28
8099 10121 10124 28
8100 10121 10125 28
8101 10126 10127 28
8102 10126 10128 28
8103 10126 10129 28
8104 10126 10130 28
8105 10131 10132 28
8106 10131 10133 28
8107 10131 10134 28
8108 10131 10135 28
8109 10136 10137 28
8110 10136 10138 28
8111 10136 10139 28
8112 10136 10140 28
8113 10141 10142 28
8114 10141 10143 28
8115 10141 10144 28
8116 10141 10145 28
8117 10146 10147 28
8118 10146 10148 28
8119 10146 10149 28
8120 10146 10150 28
8121 10151 10152 28
8122 10151 10153 28
8123 10151 10154 28
8124 10151 10155 28
8125 10156 10157 28
8126 10156 10158 28
8127 10156 10159 28
8128 10156 10160 28
8129 10161 10162 28
8130 10161 10163 28
8131 10161 10164 28
8132 10161 10165 28
8133 10166 10167 28
8134 10166 10168 28
8135 10166 10169 28
8136 10166 10170 28
8137 10171 10172 28
8138 10171 10173 28
8139 10171 10174 28
8140 10171 10175 28
8141 10176 10177 28
8142 10176 10178 28
8143 10176 10179 28
8144 10176 10180 28
8145 10181 10182 28
8146 10181 10183 28
8147 10181 10184 28
8148 10181 10185 28
8149 10186 10187 28
8150 10186 10188 28
8151 10186 10189 28
8152 10186 10190 28
8153 10191 10192 28
8154 10191 10193 28
8155 10191 10194 28
8156 10191 10195 28
8157 10196 10197 28
8158 10196 10198 28
8159 10196 10199 28
8160 10196 10200 28
8161 10201 10202 28
8162 10201 10203 28
8163 10201 10204 28
8164 10201 10205 28
8165 10206 10207 28
8166 10206 10208 28
8167 10206 10209 28
8168 10206 10210 28
8169 10211 10212 28
8170 10211 10213 28
8171 10211 10214 28
8172 10211 10215 28
8173 10216 10217 28
8174 10216 10218 28
8175 10216 10219 28
8176 10216 10220 28
8177 10221 10222 28
8178 10221 10223 28
8179 10221 10224 28
8180 10221 10225 28
8181 10226 10227 28
8182 10226 10228 28
8183 10226 10229 28
8184 10226 10230 28
8185 10231 10232 28
8186 10231 10233 28
8187 10231 10234 28
8188 10231 10235 28
8189 10236 10237 28
8190 10236 10238 28
8191 10236 10239 28
8192 10236 10240 28
8193 10241 10242 28
8194 10241 10243 28
8195 10241 10244 28
8196 10241 10245 28
8197 10246 10247 28
8198 10246 10248 28
8199 10246 10249 28
8200 10246 10250 28
8201 10251 10252 28
8202 10251 10253 28
8203 10251 10254 28
8204 10251 10255 28
8205 10256 10257 28
8206 10256 10258 28
8207 10256 10259 28
8208 10256 10260 28
8209 10261 10262 28
8210 10261 10263 28
8211 10261 10264 28
8212 10261 10265 28
8213 10266 10267 28
8214 10266 10268 28
8215 10266 10269 28
8216 10266 10270 28
8217 10271 10272 28
8218 10271 10273 28
8219 10271 10274 28
8220 10271 10275 28
8221 10276 10277 28
8222 10276 10278 28
8223 10276 10279 28
8224 10276 10280 28
8225 10281 10282 28
8226 10281 10283 28
8227 10281 10284 28
8228 10281 10285 28
8229 10286 10287 28
8230 10286 10288 28
8231 10286 10289 28
8232 10286 10290 28
8233 10291 10292 28
8234 10291 10293 28
8235 10291 10294 28
8236 10291 10295 28
8237 10296 10297 28
8238 10296 10298 28
8239 10296 10299 28
8240 10296 10300 28
8241 10301 10302 28
8242 10301 10303 28
8243 10301 10304 28
8244 10301 10305 28
8245 10306 10307 28
8246 10306 10308 28
8247 10306 10309 28
8248 10306 10310 28
8249 10311 10312 28
8250 10311 10313 28
8251 10311 10314 28
8252 10311 10315 28
8253 10316 10317 28
8254 10316 10318 28
8255 10316 10319 28
8256 10316 10320 28
8257 10321 10322 28
8258 10321 10323 28
8259 10321 10324 28
8260 10321 10325 28
8261 10326 10327 28
8262 10326 10328 28
8263 10326 10329 28
8264 10326 10330 28
8265 10331 10332 28
8266 10331 10333 28
8267 10331 10334 28
8268 10331 10335 28
8269 10336 10337 28
8270 10336 10338 28
8271 10336 10339 28
8272 10336 10340 28
8273 10341 10342 28
8274 10341 10343 28
8275 10341 10344 28
8276 10341 10345 28
8277 10346 10347 28
8278 10346 10348 28
8279 10346 10349 28
8280 10346 10350 28
8281 10351 10352 28
8282 10351 10353 28
8283 10351 10354 28
8284 10351 10355 28
8285 10356 10357 28
8286 10356 10358 28
8287 10356 10359 28
8288 10356 10360 28
8289 10361 10362 28
8290 10361 10363 28
8291 10361 10364 28
8292 10361 10365 28
8293 10366 10367 28
8294 10366 10368 28
8295 10366 10369 28
8296 10366 10370 28
8297 10371 10372 28
8298 10371 10373 28
8299 10371 10374 28
8300 10371 10375 28
8301 10376 10377 28
8302 10376 10378 28
8303 10376 10379 28
8304 10376 10380 28
8305 10381 10382 28
8306 10381 10383 28
8307 10381 10384 28
8308 10381 10385 28
8309 10386 10387 28
8310 10386 10388 28
8311 10386 10389 28
8312 10386 10390 28
8313 10391 10392 28
8314 10391 10393 28
8315 10391 10394 28
8316 10391 10395 28
8317 10396 10397 28
8318 10396 10398 28
8319 10396 10399 28
8320 10396 10400 28
8321 10401 10402 28
8322 10401 10403 28
8323 10401 10404 28
8324 10401 10405 28
8325 10406 10407 28
8326 10406 10408 28
8327 10406 10409 28
8328 10406 10410 28
8329 10411 10412 28
8330 10411 10413 28
8331 10411 10414 28
8332 10411 10415 28
8333 10416 10417 28
8334 10416 10418 28
8335 10416 10419 28
8336 10416 10420 28
8337 10421 10422 28
8338 10421 10423 28
8339 10421 10424 28
8340 10421 10425 28
8341 10426 10427 28
8342 10426 10428 28
8343 10426 10429 28
8344 10426 10430 28
8345 10431 10432 28
8346 10431 10433 28
8347 10431 10434 28
8348 10431 10435 28
8349 10436 10437 28
8350 10436 10438 28
8351 10436 10439 28
8352 10436 10440 28
8353 10441 10442 28
8354 10441 10443 28
8355 10441 10444 28
8356 10441 10445 28
8357 10446 10447 28
8358 10446 10448 28
8359 10446 10449 28
8360 10446 10450 28
8361 10451 10452 28
8362 10451 10453 28
8363 10451 10454 28
8364 10451 10455 28
8365 10456 10457 28
8366 10456 10458 28
8367 10456 10459 28
8368 10456 10460 28
8369 10461 10462 28
8370 10461 10463 28
8371 10461 10464 28
8372 10461 10465 28
8373 10466 10467 28
8374 10466 10468 28
8375 10466 10469 28
8376 10466 10470 28
8377 10471 10472 28
8378 10471 10473 28
8379 10471 10474 28
8380 10471 10475 28
8381 10476 10477 28
8382 10476 10478 28
8383 10476 10479 28
8384 10476 10480 28
8385 10481 10482 28
8386 10481 10483 28
8387 10481 10484 28
8388 10481 10485 28
8389 10486 10487 28
8390 10486 10488 28
8391 10486 10489 28
8392 10486 10490 28
8393 10491 10492 28
8394 10491 10493 28
8395 10491 10494 28
8396 10491 10495 28
8397 10496 10497 28
8398 10496 10498 28
8399 10496 10499 28
8400 10496 10500 28
8401 10501 10502 28
8402 10501 10503 28
8403 10501 10504 28
8404 10501 10505 28
8405 10506 10507 28
8406 10506 10508 28
8407 10506 10509 28
8408 10506 10510 28
8409 10511 10512 28
8410 10511 10513 28
8411 10511 10514 28
8412 10511 10515 28
8413 10516 10517 28
8414 10516 10518 28
8415 10516 10519 28
8416 10516 10520 28
8417 10521 10522 28
8418 10521 10523 28
8419 10521 10524 28
8420 10521 10525 28
8421 10526 10527 28
8422 10526 10528 28
8423 10526 10529 28
8424 10526 10530 28
8425 10531 10532 28
8426 10531 10533 28
8427 10531 10534 28
8428 10531 10535 28
8429 10536 10537 28
8430 10536 10538 28
8431 10536 10539 28
8432 10536 10540 28
8433 10541 10542 28
8434 10541 10543 28
8435 10541 10544 28
8436 10541 10545 28
8437 10546 10547 28
8438 10546 10548 28
8439 10546 10549 28
8440 10546 10550 28
8441 10551 10552 28
8442 10551 10553 28
8443 10551 10554 28
8444 10551 10555 28
8445 10556 10557 28
8446 10556 10558 28
8447 10556 10559 28
8448 10556 10560 28
8449 10561 10562 28
8450 10561 10563 28
8451 10561 10564 28
8452 10561 10565 28
8453 10566 10567 28
8454 10566 10568 28
8455 10566 10569 28
8456 10566 10570 28
8457 10571 10572 28
8458 10571 10573 28
8459 10571 10574 28
8460 10571 10575 28
8461 10576 10577 28
8462 10576 10578 28
8463 10576 10579 28
8464 10576 10580 28
8465 10581 10582 28
8466 10581 10583 28
8467 10581 10584 28
8468 10581 10585 28
8469 10586 10587 28
8470 10586 10588 28
8471 10586 10589 28
8472 10586 10590 28
8473 10591 10592 28
8474 10591 10593 28
8475 10591 10594 28
8476 10591 10595 28
8477 10596 10597 28
8478 10596 10598 28
8479 10596 10599 28
8480 10596 10600 28
8481 10601 10602 28
8482 10601 10603 28
8483 10601 10604 28
8484 10601 10605 28
8485 10606 10607 28
8486 10606 10608 28
8487 10606 10609 28
8488 10606 10610 28
8489 10611 10612 28
8490 10611 10613 28
8491 10611 10614 28
8492 10611 10615 28
8493 10616 10617 28
8494 10616 10618 28
8495 10616 10619 28
8496 10616 10620 28
8497 10621 10622 28
8498 10621 10623 28
8499 10621 10624 28
8500 10621 10625 28
8501 10626 10627 28
8502 10626 10628 28
8503 10626 10629 28
8504 10626 10630 28
8505 10631 10632 28
8506 10631 10633 28
8507 10631 10634 28
8508 10631 10635 28
8509 10636 10637 28
8510 10636 10638 28
8511 10636 10639 28
8512 10636 10640 28
8513 10641 10642 28
8514 10641 10643 28
8515 10641 10644 28
8516 10641 10645 28
8517 10646 10647 28
8518 10646 10648 28
8519 10646 10649 28
8520 10646 10650 28
8521 10651 10652 28
8522 10651 10653 28
8523 10651 10654 28
8524 10651 10655 28
8525 10656 10657 28
8526 10656 10658 28
8527 10656 10659 28
8528 10656 10660 28
8529 10661 10662 28
8530 10661 10663 28
8531 10661 10664 28
8532 10661 10665 28
8533 10666 10667 28
8534 10666 10668 28
8535 10666 10669 28
8536 10666 10670 28
8537 10671 10672 28
8538 10671 10673 28
8539 10671 10674 28
8540 10671 10675 28
8541 10676 10677 28
8542 10676 10678 28
8543 10676 10679 28
8544 10676 10680 28
8545 10681 10682 28
8546 10681 10683 28
8547 10681 10684 28
8548 10681 10685 28
8549 10686 10687 28
8550 10686 10688 28
8551 10686 10689 28
8552 10686 10690 28
8553 10691 10692 28
8554 10691 10693 28
8555 10691 10694 28
8556 10691 10695 28
8557 10696 10697 28
8558 10696 10698 28
8559 10696 10699 28
8560 10696 10700 28
8561 10701 10702 28
8562 10701 10703 28
8563 10701 10704 28
8564 10701 10705 28
8565 10706 10707 28
8566 10706 10708 28
8567 10706 10709 28
8568 10706 10710 28
8569 10711 10712 28
8570 10711 10713 28
8571 10711 10714 28
8572 10711 10715 28
8573 10716 10717 28
8574 10716 10718 28
8575 10716 10719 28
8576 10716 10720 28
8577 10721 10722 28
8578 10721 10723 28
8579 10721 10724 28
8580 10721 10725 28
8581 10726 10727 28
8582 10726 10728 28
8583 10726 10729 28
8584 10726 10730 28
8585 10731 10732 28
8586 10731 10733 28
8587 10731 10734 28
8588 10731 10735 28
8589 10736 10737 28
8590 10736 10738 28
8591 10736 10739 28
8592 10736 10740 28
8593 10741 10742 28
8594 10741 10743 28
8595 10741 10744 28
8596 10741 10745 28
8597 10746 10747 28
8598 10746 10748 28
8599 10746 10749 28
8600 10746 10750 28
8601 10751 10752 28
8602 10751 10753 28
8603 10751 10754 28
8604 10751 10755 28
8605 10756 10757 28
8606 10756 10758 28
8607 10756 10759 28
8608 10756 10760 28
8609 10761 10762 28
8610 10761 10763 28
8611 10761 10764 28
8612 10761 10765 28
8613 10766 10767 28
8614 10766 10768 28
8615 10766 10769 28
8616 10766 10770 28
8617 10771 10772 28
8618 10771 10773 28
8619 10771 10774 28
8620 10771 10775 28
8621 10776 10777 28
8622 10776 10778 28
8623 10776 10779 28
8624 10776 10780 28
8625 10781 10782 28
8626 10781 10783 28
8627 10781 10784 28
8628 10781 10785 28
8629 10786 10787 28
8630 10786 10788 28
8631 10786 10789 28
8632 10786 10790 28
8633 10791 10792 28
8634 10791 10793 28
8635 10791 10794 28
8636 10791 10795 28
8637 10796 10797 28
8638 10796 10798 28
8639 10796 10799 28
8640 10796 10800 28
8641 10801 10802 28
8642 10801 10803 28
8643 10801 10804 28
8644 10801 10805 28
8645 10806 10807 28
8646 10806 10808 28
8647 10806 10809 28
8648 10806 10810 28
8649 10811 10812 28
8650 10811 10813 28
8651 10811 10814 28
8652 10811 10815 28
8653 10816 10817 28
8654 10816 10818 28
8655 10816 10819 28
8656 10816 10820 28
8657 10821 10822 28
8658 10821 10823 28
8659 10821 10824 28
8660 10821 10825 28
8661 10826 10827 28
8662 10826 10828 28
8663 10826 10829 28
8664 10826 10830 28
8665 10831 10832 28
8666 10831 10833 28
8667 10831 10834 28
8668 10831 10835 28
8669 10836 10837 28
8670 10836 10838 28
8671 10836 10839 28
8672 10836 10840 28
8673 10841 10842 28
8674 10841 10843 28
8675 10841 10844 28
8676 10841 10845 28
8677 10846 10847 28
8678 10846 10848 28
8679 10846 10849 28
8680 10846 10850 28
8681 10851 10852 28
8682 10851 10853 28
8683 10851 10854 28
8684 10851 10855 28
8685 10856 10857 28
8686 10856 10858 28
8687 10856 10859 28
8688 10856 10860 28
8689 10861 10862 28
8690 10861 10863 28
8691 10861 10864 28
8692 10861 10865 28
8693 10866 10867 28
8694 10866 10868 28
8695 10866 10869 28
8696 10866 10870 28
8697 10871 10872 28
8698 10871 10873 28
8699 10871 10874 28
8700 10871 10875 28
8701 10876 10877 28
8702 10876 10878 28
8703 10876 10879 28
8704 10876 10880 28
8705 10881 10882 28
8706 10881 10883 28
8707 10881 10884 28
8708 10881 10885 28
8709 10886 10887 28
8710 10886 10888 28
8711 10886 10889 28
8712 10886 10890 28
8713 10891 10892 28
8714 10891 10893 28
8715 10891 10894 28
8716 10891 10895 28
8717 10896 10897 28
8718 10896 10898 28
8719 10896 10899 28
8720 10896 10900 28
8721 10901 10902 28
8722 10901 10903 28
8723 10901 10904 28
8724 10901 10905 28
8725 10906 10907 28
8726 10906 10908 28
8727 10906 10909 28
8728 10906 10910 28
8729 10911 10912 28
8730 10911 10913 28
8731 10911 10914 28
8732 10911 10915 28
8733 10916 10917 28
8734 10916 10918 28
8735 10916 10919 28
8736 10916 10920 28
8737 10921 10922 28
8738 10921 10923 28
8739 10921 10924 28
8740 10921 10925 28
8741 10926 10927 28
8742 10926 10928 28
8743 10926 10929 28
8744 10926 10930 28
8745 10931 10932 28
8746 10931 10933 28
8747 10931 10934 28
8748 10931 10935 28
8749 10936 10937 28
8750 10936 10938 28
8751 10936 10939 28
8752 10936 10940 28
8753 10941 10942 28
8754 10941 10943 28
8755 10941 10944 28
8756 10941 10945 28
8757 10946 10947 28
8758 10946 10948 28
8759 10946 10949 28
8760 10946 10950 28
8761 10951 10952 28
8762 10951 10953 28
8763 10951 10954 28
8764 10951 10955 28
8765 10956 10957 28
8766 10956 10958 28
8767 10956 10959 28
8768 10956 10960 28
8769 10961 10962 28
8770 10961 10963 28
8771 10961 10964 28
8772 10961 10965 28
8773 10966 10967 28
8774 10966 10968 28
8775 10966 10969 28
8776 10966 10970 28
8777 10971 10972 28
8778 10971 10973 28
8779 10971 10974 28
8780 10971 10975 28
8781 10976 10977 28
8782 10976 10978 28
8783 10976 10979 28
8784 10976 10980 28
8785 10981 10982 28
8786 10981 10983 28
8787 10981 10984 28
8788 10981 10985 28
8789 10986 10987 28
8790 10986 10988 28
8791 10986 10989 28
8792 10986 10990 28
8793 10991 10992 28
8794 10991 10993 28
8795 10991 10994 28
8796 10991 10995 28
8797 10996 10997 28
8798 10996 10998 28
8799 10996 10999 28
8800 10996 11000 28
8801 11001 11002 28
8802 11001 11003 28
8803 11001 11004 28
8804 11001 11005 28
8805 11006 11007 28
8806 11006 11008 28
8807 11006 11009 28
8808 11006 11010 28
8809 11011 11012 28
8810 11011 11013 28
8811 11011 11014 28
8812 11011 11015 28
8813 11016 11017 28
8814 11016 11018 28
8815 11016 11019 28
8816 11016 11020 28
8817 11021 11022 28
8818 11021 11023 28
8819 11021 11024 28
8820 11021 11025 28
8821 11026 11027 28
8822 11026 11028 28
8823 11026 11029 28
8824 11026 11030 28
8825 11031 11032 28
8826 11031 11033 28
8827 11031 11034 28
8828 11031 11035 28
8829 11036 11037 28
8830 11036 11038 28
8831 11036 11039 28
8832 11036 11040 28
8833 11041 11042 28
8834 11041 11043 28
8835 11041 11044 28
8836 11041 11045 28
8837 11046 11047 28
8838 11046 11048 28
8839 11046 11049 28
8840 11046 11050 28
8841 11051 11052 28
8842 11051 11053 28
8843 11051 11054 28
8844 11051 11055 28
8845 11056 11057 28
8846 11056 11058 28
8847 11056 11059 28
8848 11056 11060 28
8849 11061 11062 28
8850 11061 11063 28
8851 11061 11064 28
8852 11061 11065 28
8853 11066 11067 28
8854 11066 11068 28
8855 11066 11069 28
8856 11066 11070 28
8857 11071 11072 28
8858 11071 11073 28
8859 11071 11074 28
8860 11071 11075 28
8861 11076 11077 28
8862 11076 11078 28
8863 11076 11079 28
8864 11076 11080 28
8865 11081 11082 28
8866 11081 11083 28
8867 11081 11084 28
8868 11081 11085 28
8869 11086 11087 28
8870 11086 11088 28
8871 11086 11089 28
8872 11086 11090 28
8873 11091 11092 28
8874 11091 11093 28
8875 11091 11094 28
8876 11091 11095 28
8877 11096 11097 28
8878 11096 11098 28
8879 11096 11099 28
8880 11096 11100 28
8881 11101 11102 28
8882 11101 11103 28
8883 11101 11104 28
8884 11101 11105 28
8885 11106 11107 28
8886 11106 11108 28
8887 11106 11109 28
8888 11106 11110 28
8889 11111 11112 28
8890 11111 11113 28
8891 11111 11114 28
8892 11111 11115 28
8893 11116 11117 28
8894 11116 11118 28
8895 11116 11119 28
8896 11116 11120 28
8897 11121 11122 28
8898 11121 11123 28
8899 11121 11124 28
8900 11121 11125 28
8901 11126 11127 28
8902 11126 11128 28
8903 11126 11129 28
8904 11126 11130 28
8905 11131 11132 28
8906 11131 11133 28
8907 11131 11134 28
8908 11131 11135 28
8909 11136 11137 28
8910 11136 11138 28
8911 11136 11139 28
8912 11136 11140 28
8913 11141 11142 28
8914 11141 11143 28
8915 11141 11144 28
8916 11141 11145 28
8917 11146 11147 28
8918 11146 11148 28
8919 11146 11149 28
8920 11146 11150 28
8921 11151 11152 28
8922 11151 11153 28
8923 11151 11154 28
8924 11151 11155 28
8925 11156 11157 28
8926 11156 11158 28
8927 11156 11159 28
8928 11156 11160 28
8929 11161 11162 28
8930 11161 11163 28
8931 11161 11164 28
8932 11161 11165 28
8933 11166 11167 28
8934 11166 11168 28
8935 11166 11169 28
8936 11166 11170 28
8937 11171 11172 28
8938 11171 11173 28
8939 11171 11174 28
8940 11171 11175 28
8941 11176 11177 28
8942 11176 11178 28
8943 11176 11179 28
8944 11176 11180 28
8945 11181 11182 28
8946 11181 11183 28
8947 11181 11184 28
8948 11181 11185 28
8949 11186 11187 28
8950 11186 11188 28
8951 11186 11189 28
8952 11186 11190 28
8953 11191 11192 28
8954 11191 11193 28
8955 11191 11194 28
8956 11191 11195 28
8957 11196 11197 28
8958 11196 11198 28
8959 11196 11199 28
8960 11196 11200 28
8961 11201 11202 28
8962 11201 11203 28
8963 11201 11204 28
8964 11201 11205 28
8965 11206 11207 28
8966 11206 11208 28
8967 11206 11209 28
8968 11206 11210 28
8969 11211 11212 28
8970 11211 11213 28
8971 11211 11214 28
8972 11211 11215 28
8973 11216 11217 28
8974 11216 11218 28
8975 11216 11219 28
8976 11216 11220 28
8977 11221 11222 28
8978 11221 11223 28
8979 11221 11224 28
8980 11221 11225 28
8981 11226 11227 28
8982 11226 11228 28
8983 11226 11229 28
8984 11226 11230 28
8985 11231 11232 28
8986 11231 11233 28
8987 11231 11234 28
8988 11231 11235 28
8989 11236 11237 28
8990 11236 11238 28
8991 11236 11239 28
8992 11236 11240 28
8993 11241 11242 28
8994 11241 11243 28
8995 11241 11244 28
8996 11241 11245 28
8997 11246 11247 28
8998 11246 11248 28
8999 11246 11249 28
9000 11246 11250 28
9001 11251 11252 28
9002 11251 11253 28
9003 11251 11254 28
9004 11251 11255 28
9005 11256 11257 28
9006 11256 11258 28
9007 11256 11259 28
9008 11256 11260 28
9009 11261 11262 28
9010 11261 11263 28
9011 11261 11264 28
9012 11261 11265 28
9013 11266 11267 28
9014 11266 11268 28
9015 11266 11269 28
9016 11266 11270 28
9017 11271 11272 28
9018 11271 11273 28
9019 11271 11274 28
9020 11271 11275 28
9021 11276 11277 28
9022 11276 11278 28
9023 11276 11279 28
9024 11276 11280 28
9025 11281 11282 28
9026 11281 11283 28
9027 11281 11284 28
9028 11281 11285 28
9029 11286 11287 28
9030 11286 11288 28
9031 11286 11289 28
9032 11286 11290 28
9033 11291 11292 28
9034 11291 11293 28
9035 11291 11294 28
9036 11291 11295 28
9037 11296 11297 28
9038 11296 11298 28
9039 11296 11299 28
9040 11296 11300 28
9041 11301 11302 28
9042 11301 11303 28
9043 11301 11304 28
9044 11301 11305 28
9045 11306 11307 28
9046 11306 11308 28
9047 11306 11309 28
9048 11306 11310 28
9049 11311 11312 28
9050 11311 11313 28
9051 11311 11314 28
9052 11311 11315 28
9053 11316 11317 28
9054 11316 11318 28
9055 11316 11319 28
9056 11316 11320 28
9057 11321 11322 28
9058 11321 11323 28
9059 11321 11324 28
9060 11321 11325 28
9061 11326 11327 28
9062 11326 11328 28
9063 11326 11329 28
9064 11326 11330 28
9065 11331 11332 28
9066 11331 11333 28
9067 11331 11334 28
9068 11331 11335 28
9069 11336 11337 28
9070 11336 11338 28
9071 11336 11339 28
9072 11336 11340 28
9073 11341 11342 28
9074 11341 11343 28
9075 11341 11344 28
9076 11341 11345 28
9077 11346 11347 28
9078 11346 11348 28
9079 11346 11349 28
9080 11346 11350 28
9081 11351 11352 28
9082 11351 11353 28
9083 11351 11354 28
9084 11351 11355 28
9085 11356 11357 28
9086 11356 11358 28
9087 11356 11359 28
9088 11356 11360 28
9089 11361 11362 28
9090 11361 11363 28
9091 11361 11364 28
9092 11361 11365 28
9093 11366 11367 28
9094 11366 11368 28
9095 11366 11369 28
9096 11366 11370 28
9097 11371 11372 28
9098 11371 11373 28
9099 11371 11374 28
9100 11371 11375 28
9101 11376 11377 28
9102 11376 11378 28
9103 11376 11379 28
9104 11376 11380 28
9105 11381 11382 28
9106 11381 11383 28
9107 11381 11384 28
9108 11381 11385 28
9109 11386 11387 28
9110 11386 11388 28
9111 11386 11389 28
9112 11386 11390 28
9113 11391 11392 28
9114 11391 11393 28
9115 11391 11394 28
9116 11391 11395 28
9117 11396 11397 28
9118 11396 11398 28
9119 11396 11399 28
9120 11396 11400 28
9121 11401 11402 28
9122 11401 11403 28
9123 11401 11404 28
9124 11401 11405 28
9125 11406 11407 28
9126 11406 11408 28
9127 11406 11409 28
9128 11406 11410 28
9129 11411 11412 28
9130 11411 11413 28
9131 11411 11414 28
9132 11411 11415 28
9133 11416 11417 28
9134 11416 11418 28
9135 11416 11419 28
9136 11416 11420 28
9137 11421 11422 28
9138 11421 11423 28
9139 11421 11424 28
9140 11421 11425 28
9141 11426 11427 28
9142 11426 11428 28
9143 11426 11429 28
9144 11426 11430 28
9145 11431 11432 28
9146 11431 11433 28
9147 11431 11434 28
9148 11431 11435 28
9149 11436 11437 28
9150 11436 11438 28
9151 11436 11439 28
9152 11436 11440 28
9153 11441 11442 28
9154 11441 11443 28
9155 11441 11444 28
9156 11441 11445 28
9157 11446 11447 28
9158 11446 11448 28
9159 11446 11449 28
9160 11446 11450 28
9161 11451 11452 28
9162 11451 11453 28
9163 11451 11454 28
9164 11451 11455 28
9165 11456 11457 28
9166 11456 11458 28
9167 11456 11459 28
9168 11456 11460 28
9169 11461 11462 28
9170 11461 11463 28
9171 11461 11464 28
9172 11461 11465 28
9173 11466 11467 28
9174 11466 11468 28
9175 11466 11469 28
9176 11466 11470 28
9177 11471 11472 28
9178 11471 11473 28
9179 11471 11474 28
9180 11471 11475 28
9181 11476 11477 28
9182 11476 11478 28
9183 11476 11479 28
9184 11476 11480 28
9185 11481 11482 28
9186 11481 11483 28
9187 11481 11484 28
9188 11481 11485 28
9189 11486 11487 28
9190 11486 11488 28
9191 11486 11489 28
9192 11486 11490 28
9193 11491 11492 28
9194 11491 11493 28
9195 11491 11494 28
9196 11491 11495 28
9197 11496 11497 28
9198 11496 11498 28
9199 11496 11499 28
9200 11496 11500 28
9201 11501 11502 28
9202 11501 11503 28
9203 11501 11504 28
9204 11501 11505 28
9205 11506 11507 28
9206 11506 11508 28
9207 11506 11509 28
9208 11506 11510 28
9209 11511 11512 28
9210 11511 11513 28
9211 11511 11514 28
9212 11511 11515 28
9213 11516 11517 28
9214 11516 11518 28
9215 11516 11519 28
9216 11516 11520 28
9217 11521 11522 28
9218 11521 11523 28
9219 11521 11524 28
9220 11521 11525 28
9221 11526 11527 28
9222 11526 11528 28
9223 11526 11529 28
9224 11526 11530 28
9225 11531 11532 28
9226 11531 11533 28
9227 11531 11534 28
9228 11531 11535 28
9229 11536 11537 28
9230 11536 11538 28
9231 11536 11539 28
9232 11536 11540 28
9233 11541 11542 28
9234 11541 11543 28
9235 11541 11544 28
9236 11541 11545 28
9237 11546 11547 28
9238 11546 11548 28
9239 11546 11549 28
9240 11546 11550 28
9241 11551 11552 28
9242 11551 11553 28
9243 11551 11554 28
9244 11551 11555 28
9245 11556 11557 28
9246 11556 11558 28
9247 11556 11559 28
9248 11556 11560 28
9249 11561 11562 28
9250 11561 11563 28
9251 11561 11564 28
9252 11561 11565 28
9253 11566 11567 28
9254 11566 11568 28
9255 11566 11569 28
9256 11566 11570 28
9257 11571 11572 28
9258 11571 11573 28
9259 11571 11574 28
9260 11571 11575 28
9261 11576 11577 28
9262 11576 11578 28
9263 11576 11579 28
9264 11576 11580 28
9265 11581 11582 28
9266 11581 11583 28
9267 11581 11584 28
9268 11581 11585 28
9269 11586 11587 28
9270 11586 11588 28
9271 11586 11589 28
9272 11586 11590 28
9273 11591 11592 28
9274 11591 11593 28
9275 11591 11594 28
9276 11591 11595 28
9277 11596 11597 28
9278 11596 11598 28
9279 11596 11599 28
9280 11596 11600 28
9281 11601 11602 28
9282 11601 11603 28
9283 11601 11604 28
9284 11601 11605 28
9285 11606 11607 28
9286 11606 11608 28
9287 11606 11609 28
9288 11606 11610 28
9289 11611 11612 28
9290 11611 11613 28
9291 11611 11614 28
9292 11611 11615 28
9293 11616 11617 28
9294 11616 11618 28
9295 11616 11619 28
9296 11616 11620 28
9297 11621 11622 28
9298 11621 11623 28
9299 11621 11624 28
9300 11621 11625 28
9301 11626 11627 28
9302 11626 11628 28
9303 11626 11629 28
9304 11626 11630 28
9305 11631 11632 28
9306 11631 11633 28
9307 11631 11634 28
9308 11631 11635 28
9309 11636 11637 28
9310 11636 11638 28
9311 11636 11639 28
9312 11636 11640 28
9313 11641 11642 28
9314 11641 11643 28
9315 11641 11644 28
9316 11641 11645 28
9317 11646 11647 28
9318 11646 11648 28
9319 11646 11649 28
9320 11646 11650 28
9321 11651 11652 28
9322 11651 11653 28
9323 11651 11654 28
9324 11651 11655 28
9325 11656 11657 28
9326 11656 11658 28
9327 11656 11659 28
9328 11656 11660 28
9329 11661 11662 28
9330 11661 11663 28
9331 11661 11664 28
9332 11661 11665 28
9333 11666 11667 28
9334 11666 11668 28
9335 11666 11669 28
9336 11666 11670 28
9337 11671 11672 28
9338 11671 11673 28
9339 11671 11674 28
9340 11671 11675 28
9341 11676 11677 28
9342 11676 11678 28
9343 11676 11679 28
9344 11676 11680 28
9345 11681 11682 28
9346 11681 11683 28
9347 11681 11684 28
9348 11681 11685 28
9349 11686 11687 28
9350 11686 11688 28
9351 11686 11689 28
9352 11686 11690 28
9353 11691 11692 28
9354 11691 11693 28
9355 11691 11694 28
9356 11691 11695 28
9357 11696 11697 28
9358 11696 11698 28
9359 11696 11699 28
9360 11696 11700 28
9361 11701 11702 28
9362 11701 11703 28
9363 11701 11704 28
9364 11701 11705 28
9365 11706 11707 28
9366 11706 11708 28
9367 11706 11709 28
9368 11706 11710 28
9369 11711 11712 28
9370 11711 11713 28
9371 11711 11714 28
9372 11711 11715 28
9373 11716 11717 28
9374 11716 11718 28
9375 11716 11719 28
9376 11716 11720 28
9377 11721 11722 28
9378 11721 11723 28
9379 11721 11724 28
9380 11721 11725 28
9381 11726 11727 28
9382 11726 11728 28
9383 11726 11729 28
9384 11726 11730 28
9385 11731 11732 28
9386 11731 11733 28
9387 11731 11734 28
9388 11731 11735 28
9389 11736 11737 28
9390 11736 11738 28
9391 11736 11739 28
9392 11736 11740 28
9393 11741 11742 28
9394 11741 11743 28
9395 11741 11744 28
9396 11741 11745 28
9397 11746 11747 28
9398 11746 11748 28
9399 11746 11749 28
9400 11746 11750 28
9401 11751 11752 28
9402 11751 11753 28
9403 11751 11754 28
9404 11751 11755 28
9405 11756 11757 28
9406 11756 11758 28
9407 11756 11759 28
9408 11756 11760 28
9409 11761 11762 28
9410 11761 11763 28
9411 11761 11764 28
9412 11761 11765 28
9413 11766 11767 28
9414 11766 11768 28
9415 11766 11769 28
9416 11766 11770 28
9417 11771 11772 28
9418 11771 11773 28
9419 11771 11774 28
9420 11771 11775 28
9421 11776 11777 28
9422 11776 11778 28
9423 11776 11779 28
9424 11776 11780 28
9425 11781 11782 28
9426 11781 11783 28
9427 11781 11784 28
9428 11781 11785 28
9429 11786 11787 28
9430 11786 11788 28
9431 11786 11789 28
9432 11786 11790 28
9433 11791 11792 28
9434 11791 11793 28
9435 11791 11794 28
9436 11791 11795 28
9437 11796 11797 28
9438 11796 11798 28
9439 11796 11799 28
9440 11796 11800 28
9441 11801 11802 28
9442 11801 11803 28
9443 11801 11804 28
9444 11801 11805 28
9445 11806 11807 28
9446 11806 11808 28
9447 11806 11809 28
9448 11806 11810 28
9449 11811 11812 28
9450 11811 11813 28
9451 11811 11814 28
9452 11811 11815 28
9453 11816 11817 28
9454 11816 11818 28
9455 11816 11819 28
9456 11816 11820 28
9457 11821 11822 28
9458 11821 11823 28
9459 11821 11824 28
9460 11821 11825 28
9461 11826 11827 28
9462 11826 11828 28
9463 11826 11829 28
9464 11826 11830 28
9465 11831 11832 28
9466 11831 11833 28
9467 11831 11834 28
9468 11831 11835 28
9469 11836 11837 28
9470 11836 11838 28
9471 11836 11839 28
9472 11836 11840 28
9473 11841 11842 28
9474 11841 11843 28
9475 11841 11844 28
9476 11841 11845 28
9477 11846 11847 28
9478 11846 11848 28
9479 11846 11849 28
9480 11846 11850 28
9481 11851 11852 28
9482 11851 11853 28
9483 11851 11854 28
9484 11851 11855 28
9485 11856 11857 28
9486 11856 11858 28
9487 11856 11859 28
9488 11856 11860 28
9489 11861 11862 28
9490 11861 11863 28
9491 11861 11864 28
9492 11861 11865 28
9493 11866 11867 28
9494 11866 11868 28
9495 11866 11869 28
9496 11866 11870 28
9497 11871 11872 28
9498 11871 11873 28
9499 11871 11874 28
9500 11871 11875 28
9501 11876 11877 28
9502 11876 11878 28
9503 11876 11879 28
9504 11876 11880 28
9505 11881 11882 28
9506 11881 11883 28
9507 11881 11884 28
9508 11881 11885 28
9509 11886 11887 28
9510 11886 11888 28
9511 11886 11889 28
9512 11886 11890 28
9513 11891 11892 28
9514 11891 11893 28
9515 11891 11894 28
9516 11891 11895 28
9517 11896 11897 28
9518 11896 11898 28
9519 11896 11899 28
9520 11896 11900 28
9521 11901 11902 28
9522 11901 11903 28
9523 11901 11904 28
9524 11901 11905 28
9525 11906 11907 28
9526 11906 11908 28
9527 11906 11909 28
9528 11906 11910 28
9529 11911 11912 28
9530 11911 11913 28
9531 11911 11914 28
9532 11911 11915 28
9533 11916 11917 28
9534 11916 11918 28
9535 11916 11919 28
9536 11916 11920 28
9537 11921 11922 28
9538 11921 11923 28
9539 11921 11924 28
9540 11921 11925 28
9541 11926 11927 28
9542 11926 11928 28
9543 11926 11929 28
9544 11926 11930 28
9545 11931 11932 28
9546 11931 11933 28
9547 11931 11934 28
9548 11931 11935 28
9549 11936 11937 28
9550 11936 11938 28
9551 11936 11939 28
9552 11936 11940 28
9553 11941 11942 28
9554 11941 11943 28
9555 11941 11944 28
9556 11941 11945 28
9557 11946 11947 28
9558 11946 11948 28
9559 11946 11949 28
9560 11946 11950 28
9561 11951 11952 28
9562 11951 11953 28
9563 11951 11954 28
9564 11951 11955 28
9565 11956 11957 28
9566 11956 11958 28
9567 11956 11959 28
9568 11956 11960 28
9569 11961 11962 28
9570 11961 11963 28
9571 11961 11964 28
9572 11961 11965 28
9573 11966 11967 28
9574 11966 11968 28
9575 11966 11969 28
9576 11966 11970 28
9577 11971 11972 28
9578 11971 11973 28
9579 11971 11974 28
9580 11971 11975 28
9581 11976 11977 28
9582 11976 11978 28
9583 11976 11979 28
9584 11976 11980 28
9585 11981 11982 28
9586 11981 11983 28
9587 11981 11984 28
9588 11981 11985 28
9589 11986 11987 28
9590 11986 11988 28
9591 11986 11989 28
9592 11986 11990 28
9593 11991 11992 28
9594 11991 11993 28
9595 11991 11994 28
9596 11991 11995 28
9597 11996 11997 28
9598 11996 11998 28
9599 11996 11999 28
9600 11996 12000 28
9601 12001 12002 28
9602 12001 12003 28
9603 12001 12004 28
9604 12001 12005 28
9605 12006 12007 28
9606 12006 12008 28
9607 12006 12009 28
9608 12006 12010 28
9609 12011 12012 28
9610 12011 12013 28
9611 12011 12014 28
9612 12011 12015 28
9613 12016 12017 28
9614 12016 12018 28
9615 12016 12019 28
9616 12016 12020 28
9617 12021 12022 28
9618 12021 12023 28
9619 12021 12024 28
9620 12021 12025 28
9621 12026 12027 28
9622 12026 12028 28
9623 12026 12029 28
9624 12026 12030 28
9625 12031 12032 28
9626 12031 12033 28
9627 12031 12034 28
9628 12031 12035 28
9629 12036 12037 28
9630 12036 12038 28
9631 12036 12039 28
9632 12036 12040 28
9633 12041 12042 28
9634 12041 12043 28
9635 12041 12044 28
9636 12041 12045 28
9637 12046 12047 28
9638 12046 12048 28
9639 12046 12049 28
9640 12046 12050 28
9641 12051 12052 28
9642 12051 12053 28
9643 12051 12054 28
9644 12051 12055 28
9645 12056 12057 28
9646 12056 12058 28
9647 12056 12059 28
9648 12056 12060 28
9649 12061 12062 28
9650 12061 12063 28
9651 12061 12064 28
9652 12061 12065 28
9653 12066 12067 28
9654 12066 12068 28
9655 12066 12069 28
9656 12066 12070 28
9657 12071 12072 28
9658 12071 12073 28
9659 12071 12074 28
9660 12071 12075 28
9661 12076 12077 28
9662 12076 12078 28
9663 12076 12079 28
9664 12076 12080 28
9665 12081 12082 28
9666 12081 12083 28
9667 12081 12084 28
9668 12081 12085 28
9669 12086 12087 28
9670 12086 12088 28
9671 12086 12089 28
9672 12086 12090 28
9673 12091 12092 28
9674 12091 12093 28
9675 12091 12094 28
9676 12091 12095 28
9677 12096 12097 28
9678 12096 12098 28
9679 12096 12099 28
9680 12096 12100 28
9681 12101 12102 28
9682 12101 12103 28
9683 12101 12104 28
9684 12101 12105 28
9685 12106 12107 28
9686 12106 12108 28
9687 12106 12109 28
9688 12106 12110 28
9689 12111 12112 28
9690 12111 12113 28
9691 12111 12114 28
9692 12111 12115 28
9693 12116 12117 28
9694 12116 12118 28
9695 12116 12119 28
9696 12116 12120 28
9697 12121 12122 28
9698 12121 12123 28
9699 12121 12124 28
9700 12121 12125 28
9701 12126 12127 28
9702 12126 12128 28
9703 12126 12129 28
9704 12126 12130 28
9705 12131 12132 28
9706 12131 12133 28
9707 12131 12134 28
9708 12131 12135 28
9709 12136 12137 28
9710 12136 12138 28
9711 12136 12139 28
9712 12136 12140 28
9713 12141 12142 28
9714 12141 12143 28
9715 12141 12144 28
9716 12141 12145 28
9717 12146 12147 28
9718 12146 12148 28
9719 12146 12149 28
9720 12146 12150 28
9721 12151 12152 28
9722 12151 12153 28
9723 12151 12154 28
9724 12151 12155 28
9725 12156 12157 28
9726 12156 12158 28
9727 12156 12159 28
9728 12156 12160 28
9729 12161 12162 28
9730 12161 12163 28
9731 12161 12164 28
9732 12161 12165 28
9733 12166 12167 28
9734 12166 12168 28
9735 12166 12169 28
9736 12166 12170 28
9737 12171 12172 28
9738 12171 12173 28
9739 12171 12174 28
9740 12171 12175 28
9741 12176 12177 28
9742 12176 12178 28
9743 12176 12179 28
9744 12176 12180 28
9745 12181 12182 28
9746 12181 12183 28
9747 12181 12184 28
9748 12181 12185 28
9749 12186 12187 28
9750 12186 12188 28
9751 12186 12189 28
9752 12186 12190 28
9753 12191 12192 28
9754 12191 12193 28
9755 12191 12194 28
9756 12191 12195 28
9757 12196 12197 28
9758 12196 12198 28
9759 12196 12199 28
9760 12196 12200 28
9761 12201 12202 28
9762 12201 12203 28
9763 12201 12204 28
9764 12201 12205 28
9765 12206 12207 28
9766 12206 12208 28
9767 12206 12209 28
9768 12206 12210 28
9769 12211 12212 28
9770 12211 12213 28
9771 12211 12214 28
9772 12211 12215 28
9773 12216 12217 28
9774 12216 12218 28
9775 12216 12219 28
9776 12216 12220 28
9777 12221 12222 28
9778 12221 12223 28
9779 12221 12224 28
9780 12221 12225 28
9781 12226 12227 28
9782 12226 12228 28
9783 12226 12229 28
9784 12226 12230 28
9785 12231 12232 28
9786 12231 12233 28
9787 12231 12234 28
9788 12231 12235 28
9789 12236 12237 28
9790 12236 12238 28
9791 12236 12239 28
9792 12236 12240 28
9793 12241 12242 28
9794 12241 12243 28
9795 12241 12244 28
9796 12241 12245 28
9797 12246 12247 28
9798 12246 12248 28
9799 12246 12249 28
9800 12246 12250 28
9801 12251 12252 28
9802 12251 12253 28
9803 12251 12254 28
9804 12251 12255 28
9805 12256 12257 28
9806 12256 12258 28
9807 12256 12259 28
9808 12256 12260 28
9809 12261 12262 28
9810 12261 12263 28
9811 12261 12264 28
9812 12261 12265 28
9813 12266 12267 28
9814 12266 12268 28
9815 12266 12269 28
9816 12266 12270 28
9817 12271 12272 28
9818 12271 12273 28
9819 12271 12274 28
9820 12271 12275 28
9821 12276 12277 28
9822 12276 12278 28
9823 12276 12279 28
9824 12276 12280 28
9825 12281 12282 28
9826 12281 12283 28
9827 12281 12284 28
9828 12281 12285 28
9829 12286 12287 28
9830 12286 12288 28
9831 12286 12289 28
9832 12286 12290 28
9833 12291 12292 28
9834 12291 12293 28
9835 12291 12294 28
9836 12291 12295 28
9837 12296 12297 28
9838 12296 12298 28
9839 12296 12299 28
9840 12296 12300 28
9841 12301 12302 28
9842 12301 12303 28
9843 12301 12304 28
9844 12301 12305 28
9845 12306 12307 28
9846 12306 12308 28
9847 12306 12309 28
9848 12306 12310 28
9849 12311 12312 28
9850 12311 12313 28
9851 12311 12314 28
9852 12311 12315 28
9853 12316 12317 28
9854 12316 12318 28
9855 12316 12319 28
9856 12316 12320 28
9857 12321 12322 28
9858 12321 12323 28
9859 12321 12324 28
9860 12321 12325 28
9861 12326 12327 28
9862 12326 12328 28
9863 12326 12329 28
9864 12326 12330 28
9865 12331 12332 28
9866 12331 12333 28
9867 12331 12334 28
9868 12331 12335 28
9869 12336 12337 28
9870 12336 12338 28
9871 12336 12339 28
9872 12336 12340 28
9873 12341 12342 28
9874 12341 12343 28
9875 12341 12344 28
9876 12341 12345 28
9877 12346 12347 28
9878 12346 12348 28
9879 12346 12349 28
9880 12346 12350 28
9881 12351 12352 28
9882 12351 12353 28
9883 12351 12354 28
9884 12351 12355 28
9885 12356 12357 28
9886 12356 12358 28
9887 12356 12359 28
9888 12356 12360 28
9889 12361 12362 28
9890 12361 12363 28
9891 12361 12364 28
9892 12361 12365 28
9893 12366 12367 28
9894 12366 12368 28
9895 12366 12369 28
9896 12366 12370 28
9897 12371 12372 28
9898 12371 12373 28
9899 12371 12374 28
9900 12371 12375 28
9901 12376 12377 28
9902 12376 12378 28
9903 12376 12379 28
9904 12376 12380 28
9905 12381 12382 28
9906 12381 12383 28
9907 12381 12384 28
9908 12381 12385 28
9909 12386 12387 28
9910 12386 12388 28
9911 12386 12389 28
9912 12386 12390 28
9913 12391 12392 28
9914 12391 12393 28
9915 12391 12394 28
9916 12391 12395 28
9917 12396 12397 28
9918 12396 12398 28
9919 12396 12399 28
9920 12396 12400 28
9921 12401 12402 28
9922 12401 12403 28
9923 12401 12404 28
9924 12401 12405 28
9925 12406 12407 28
9926 12406 12408 28
9927 12406 12409 28
9928 12406 12410 28
9929 12411 12412 28
9930 12411 12413 28
9931 12411 12414 28
9932 12411 12415 28
9933 12416 12417 28
9934 12416 12418 28
9935 12416 12419 28
9936 12416 12420 28
9937 12421 12422 28
9938 12421 12423 28
9939 12421 12424 28
9940 12421 12425 28
9941 12426 12427 28
9942 12426 12428 28
9943 12426 12429 28
9944 12426 12430 28
9945 12431 12432 28
9946 12431 12433 28
9947 12431 12434 28
9948 12431 12435 28
9949 12436 12437 28
9950 12436 12438 28
9951 12436 12439 28
9952 12436 12440 28
9953 12441 12442 28
9954 12441 12443 28
9955 12441 12444 28
9956 12441 12445 28
9957 12446 12447 28
9958 12446 12448 28
9959 12446 12449 28
9960 12446 12450 28
9961 12451 12452 28
9962 12451 12453 28
9963 12451 12454 28
9964 12451 12455 28
9965 12456 12457 28
9966 12456 12458 28
9967 12456 12459 28
9968 12456 12460 28
9969 12461 12462 28
9970 12461 12463 28
9971 12461 12464 28
9972 12461 12465 28
9973 12466 12467 28
9974 12466 12468 28
9975 12466 12469 28
9976 12466 12470 28
9977 12471 12472 28
9978 12471 12473 28
9979 12471 12474 28
9980 12471 12475 28
9981 12476 12477 28
9982 12476 12478 28
9983 12476 12479 28
9984 12476 12480 28
9985 12481 12482 28
9986 12481 12483 28
9987 12481 12484 28
9988 12481 12485 28
9989 12486 12487 28
9990 12486 12488 28
9991 12486 12489 28
9992 12486 12490 28
9993 12491 12492 28
9994 12491 12493 28
9995 12491 12494 28
9996 12491 12495 28
9997 12496 12497 28
9998 12496 12498 28
9999 12496 12499 28
10000 12496 12500 28
10001 12501 12502 28
10002 12501 12503 28
10003 12501 12504 28
10004 12501 12505 28
10005 12506 12507 28
10006 12506 12508 28
10007 12506 12509 28
10008 12506 12510 28
10009 12511 12512 28
10010 12511 12513 28
10011 12511 12514 28
10012 12511 12515 28
10013 12516 12517 28
10014 12516 12518 28
10015 12516 12519 28
10016 12516 12520 28
10017 12521 12522 28
10018 12521 12523 28
10019 12521 12524 28
10020 12521 12525 28
10021 12526 12527 28
10022 12526 12528 28
10023 12526 12529 28
10024 12526 12530 28
10025 12531 12532 28
10026 12531 12533 28
10027 12531 12534 28
10028 12531 12535 28
10029 12536 12537 28
10030 12536 12538 28
10031 12536 12539 28
10032 12536 12540 28
10033 12541 12542 28
10034 12541 12543 28
10035 12541 12544 28
10036 12541 12545 28
10037 12546 12547 28
10038 12546 12548 28
10039 12546 12549 28
10040 12546 12550 28
10041 12551 12552 28
10042 12551 12553 28
10043 12551 12554 28
10044 12551 12555 28
10045 12556 12557 28
10046 12556 12558 28
10047 12556 12559 28
10048 12556 12560 28
10049 12561 12562 28
10050 12561 12563 28
10051 12561 12564 28
10052 12561 12565 28
10053 12566 12567 28
10054 12566 12568 28
10055 12566 12569 28
10056 12566 12570 28
10057 12571 12572 28
10058 12571 12573 28
10059 12571 12574 28
10060 12571 12575 28
10061 12576 12577 28
10062 12576 12578 28
10063 12576 12579 28
10064 12576 12580 28
10065 12581 12582 28
10066 12581 12583 28
10067 12581 12584 28
10068 12581 12585 28
10069 12586 12587 28
10070 12586 12588 28
10071 12586 12589 28
10072 12586 12590 28
10073 12591 12592 28
10074 12591 12593 28
10075 12591 12594 28
10076 12591 12595 28
10077 12596 12597 28
10078 12596 12598 28
10079 12596 12599 28
10080 12596 12600 28
10081 12601 12602 28
10082 12601 12603 28
10083 12601 12604 28
10084 12601 12605 28
10085 12606 12607 28
10086 12606 12608 28
10087 12606 12609 28
10088 12606 12610 28
10089 12611 12612 28
10090 12611 12613 28
10091 12611 12614 28
10092 12611 12615 28
10093 12616 12617 28
10094 12616 12618 28
10095 12616 12619 28
10096 12616 12620 28
10097 12621 12622 28
10098 12621 12623 28
10099 12621 12624 28
10100 12621 12625 28
10101 12626 12627 28
10102 12626 12628 28
10103 12626 12629 28
10104 12626 12630 28
10105 12631 12632 28
10106 12631 12633 28
10107 12631 12634 28
10108 12631 12635 28
10109 12636 12637 28
10110 12636 12638 28
10111 12636 12639 28
10112 12636 12640 28
10113 12641 12642 28
10114 12641 12643 28
10115 12641 12644 28
10116 12641 12645 28
10117 12646 12647 28
10118 12646 12648 28
10119 12646 12649 28
10120 12646 12650 28
10121 12651 12652 28
10122 12651 12653 28
10123 12651 12654 28
10124 12651 12655 28
10125 12656 12657 28
10126 12656 12658 28
10127 12656 12659 28
10128 12656 12660 28
10129 12661 12662 28
10130 12661 12663 28
10131 12661 12664 28
10132 12661 12665 28
10133 12666 12667 28
10134 12666 12668 28
10135 12666 12669 28
10136 12666 12670 28
10137 12671 12672 28
10138 12671 12673 28
10139 12671 12674 28
10140 12671 12675 28
10141 12676 12677 28
10142 12676 12678 28
10143 12676 12679 28
10144 12676 12680 28
10145 12681 12682 28
10146 12681 12683 28
10147 12681 12684 28
10148 12681 12685 28
10149 12686 12687 28
10150 12686 12688 28
10151 12686 12689 28
10152 12686 12690 28
10153 12691 12692 28
10154 12691 12693 28
10155 12691 12694 28
10156 12691 12695 28
10157 12696 12697 28
10158 12696 12698 28
10159 12696 12699 28
10160 12696 12700 28
10161 12701 12702 28
10162 12701 12703 28
10163 12701 12704 28
10164 12701 12705 28
10165 12706 12707 28
10166 12706 12708 28
10167 12706 12709 28
10168 12706 12710 28
10169 12711 12712 28
10170 12711 12713 28
10171 12711 12714 28
10172 12711 12715 28
10173 12716 12717 28
10174 12716 12718 28
10175 12716 12719 28
10176 12716 12720 28
10177 12721 12722 28
10178 12721 12723 28
10179 12721 12724 28
10180 12721 12725 28
10181 12726 12727 28
10182 12726 12728 28
10183 12726 12729 28
10184 12726 12730 28
10185 12731 12732 28
10186 12731 12733 28
10187 12731 12734 28
10188 12731 12735 28
10189 12736 12737 28
10190 12736 12738 28
10191 12736 12739 28
10192 12736 12740 28
10193 12741 12742 28
10194 12741 12743 28
10195 12741 12744 28
10196 12741 12745 28
10197 12746 12747 28
10198 12746 12748 28
10199 12746 12749 28
10200 12746 12750 28
10201 12751 12752 28
10202 12751 12753 28
10203 12751 12754 28
10204 12751 12755 28
10205 12756 12757 28
10206 12756 12758 28
10207 12756 12759 28
10208 12756 12760 28
10209 12761 12762 28
10210 12761 12763 28
10211 12761 12764 28
10212 12761 12765 28
10213 12766 12767 28
10214 12766 12768 28
10215 12766 12769 28
10216 12766 12770 28
10217 12771 12772 28
10218 12771 12773 28
10219 12771 12774 28
10220 12771 12775 28
10221 12776 12777 28
10222 12776 12778 28
10223 12776 12779 28
10224 12776 12780 28
10225 12781 12782 28
10226 12781 12783 28
10227 12781 12784 28
10228 12781 12785 28
10229 12786 12787 28
10230 12786 12788 28
10231 12786 12789 28
10232 12786 12790 28
10233 12791 12792 28
10234 12791 12793 28
10235 12791 12794 28
10236 12791 12795 28
10237 12796 12797 28
10238 12796 12798 28
10239 12796 12799 28
10240 12796 12800 28
10241 12801 12802 28
10242 12801 12803 28
10243 12801 12804 28
10244 12801 12805 28
10245 12806 12807 28
10246 12806 12808 28
10247 12806 12809 28
10248 12806 12810 28
10249 12811 12812 28
10250 12811 12813 28
10251 12811 12814 28
10252 12811 12815 28
10253 12816 12817 28
10254 12816 12818 28
10255 12816 12819 28
10256 12816 12820 28
10257 12821 12822 28
10258 12821 12823 28
10259 12821 12824 28
10260 12821 12825 28
10261 12826 12827 28
10262 12826 12828 28
10263 12826 12829 28
10264 12826 12830 28
10265 12831 12832 28
10266 12831 12833 28
10267 12831 12834 28
10268 12831 12835 28
10269 12836 12837 28
10270 12836 12838 28
10271 12836 12839 28
10272 12836 12840 28
10273 12841 12842 28
10274 12841 12843 28
10275 12841 12844 28
10276 12841 12845 28
10277 12846 12847 28
10278 12846 12848 28
10279 12846 12849 28
10280 12846 12850 28
10281 12851 12852 28
10282 12851 12853 28
10283 12851 12854 28
10284 12851 12855 28
10285 12856 12857 28
10286 12856 12858 28
10287 12856 12859 28
10288 12856 12860 28
10289 12861 12862 28
10290 12861 12863 28
10291 12861 12864 28
10292 12861 12865 28
10293 12866 12867 28
10294 12866 12868 28
10295 12866 12869 28
10296 12866 12870 28
10297 12871 12872 28
10298 12871 12873 28
10299 12871 12874 28
10300 12871 12875 28
10301 12876 12877 28
10302 12876 12878 28
10303 12876 12879 28
10304 12876 12880 28
10305 12881 12882 28
10306 12881 12883 28
10307 12881 12884 28
10308 12881 12885 28
10309 12886 12887 28
10310 12886 12888 28
10311 12886 12889 28
10312 12886 12890 28
10313 12891 12892 28
10314 12891 12893 28
10315 12891 12894 28
10316 12891 12895 28
10317 12896 12897 28
10318 12896 12898 28
10319 12896 12899 28
10320 12896 12900 28
10321 12901 12902 28
10322 12901 12903 28
10323 12901 12904 28
10324 12901 12905 28
10325 12906 12907 28
10326 12906 12908 28
10327 12906 12909 28
10328 12906 12910 28
10329 12911 12912 28
10330 12911 12913 28
10331 12911 12914 28
10332 12911 12915 28
10333 12916 12917 28
10334 12916 12918 28
10335 12916 12919 28
10336 12916 12920 28
10337 12921 12922 28
10338 12921 12923 28
10339 12921 12924 28
10340 12921 12925 28
10341 12926 12927 28
10342 12926 12928 28
10343 12926 12929 28
10344 12926 12930 28
10345 12931 12932 28
10346 12931 12933 28
10347 12931 12934 28
10348 12931 12935 28
10349 12936 12937 28
10350 12936 12938 28
10351 12936 12939 28
10352 12936 12940 28
10353 12941 12942 28
10354 12941 12943 28
10355 12941 12944 28
10356 12941 12945 28
10357 12946 12947 28
10358 12946 12948 28
10359 12946 12949 28
10360 12946 12950 28
10361 12951 12952 28
10362 12951 12953 28
10363 12951 12954 28
10364 12951 12955 28
10365 12956 12957 28
10366 12956 12958 28
10367 12956 12959 28
10368 12956 12960 28
10369 12961 12962 28
10370 12961 12963 28
10371 12961 12964 28
10372 12961 12965 28
10373 12966 12967 28
10374 12966 12968 28
10375 12966 12969 28
10376 12966 12970 28
10377 12971 12972 28
10378 12971 12973 28
10379 12971 12974 28
10380 12971 12975 28
10381 12976 12977 28
10382 12976 12978 28
10383 12976 12979 28
10384 12976 12980 28
10385 12981 12982 28
10386 12981 12983 28
10387 12981 12984 28
10388 12981 12985 28
10389 12986 12987 28
10390 12986 12988 28
10391 12986 12989 28
10392 12986 12990 28
10393 12991 12992 28
10394 12991 12993 28
10395 12991 12994 28
10396 12991 12995 28
10397 12996 12997 28
10398 12996 12998 28
10399 12996 12999 28
10400 12996 13000 28
10401 13001 13002 28
10402 13001 13003 28
10403 13001 13004 28
10404 13001 13005 28
10405 13006 13007 28
10406 13006 13008 28
10407 13006 13009 28
10408 13006 13010 28
10409 13011 13012 28
10410 13011 13013 28
10411 13011 13014 28
10412 13011 13015 28
10413 13016 13017 28
10414 13016 13018 28
10415 13016 13019 28
10416 13016 13020 28
10417 13021 13022 28
10418 13021 13023 28
10419 13021 13024 28
10420 13021 13025 28
10421 13026 13027 28
10422 13026 13028 28
10423 13026 13029 28
10424 13026 13030 28
10425 13031 13032 28
10426 13031 13033 28
10427 13031 13034 28
10428 13031 13035 28
10429 13036 13037 28
10430 13036 13038 28
10431 13036 13039 28
10432 13036 13040 28
10433 13041 13042 28
10434 13041 13043 28
10435 13041 13044 28
10436 13041 13045 28
10437 13046 13047 28
10438 13046 13048 28
10439 13046 13049 28
10440 13046 13050 28
10441 13051 13052 28
10442 13051 13053 28
10443 13051 13054 28
10444 13051 13055 28
10445 13056 13057 28
10446 13056 13058 28
10447 13056 13059 28
10448 13056 13060 28
10449 13061 13062 28
10450 13061 13063 28
10451 13061 13064 28
10452 13061 13065 28
10453 13066 13067 28
10454 13066 13068 28
10455 13066 13069 28
10456 13066 13070 28
10457 13071 13072 28
10458 13071 13073 28
10459 13071 13074 28
10460 13071 13075 28
10461 13076 13077 28
10462 13076 13078 28
10463 13076 13079 28
10464 13076 13080 28
10465 13081 13082 28
10466 13081 13083 28
10467 13081 13084 28
10468 13081 13085 28
10469 13086 13087 28
10470 13086 13088 28
10471 13086 13089 28
10472 13086 13090 28
10473 13091 13092 28
10474 13091 13093 28
10475 13091 13094 28
10476 13091 13095 28
10477 13096 13097 28
10478 13096 13098 28
10479 13096 13099 28
10480 13096 13100 28
10481 13101 13102 28
10482 13101 13103 28
10483 13101 13104 28
10484 13101 13105 28
10485 13106 13107 28
10486 13106 13108 28
10487 13106 13109 28
10488 13106 13110 28
10489 13111 13112 28
10490 13111 13113 28
10491 13111 13114 28
10492 13111 13115 28
10493 13116 13117 28
10494 13116 13118 28
10495 13116 13119 28
10496 13116 13120 28
10497 13121 13122 28
10498 13121 13123 28
10499 13121 13124 28
10500 13121 13125 28
10501 13126 13127 28
10502 13126 13128 28
10503 13126 13129 28
10504 13126 13130 28
10505 13131 13132 28
10506 13131 13133 28
10507 13131 13134 28
10508 13131 13135 28
10509 13136 13137 28
10510 13136 13138 28
10511 13136 13139 28
10512 13136 13140 28
10513 13141 13142 28
10514 13141 13143 28
10515 13141 13144 28
10516 13141 13145 28
10517 13146 13147 28
10518 13146 13148 28
10519 13146 13149 28
10520 13146 13150 28
10521 13151 13152 28
10522 13151 13153 28
10523 13151 13154 28
10524 13151 13155 28
10525 13156 13157 28
10526 13156 13158 28
10527 13156 13159 28
10528 13156 13160 28
10529 13161 13162 28
10530 13161 13163 28
10531 13161 13164 28
10532 13161 13165 28
10533 13166 13167 28
10534 13166 13168 28
10535 13166 13169 28
10536 13166 13170 28
10537 13171 13172 28
10538 13171 13173 28
10539 13171 13174 28
10540 13171 13175 28
10541 13176 13177 28
10542 13176 13178 28
10543 13176 13179 28
10544 13176 13180 28
10545 13181 13182 28
10546 13181 13183 28
10547 13181 13184 28
10548 13181 13185 28
10549 13186 13187 28
10550 13186 13188 28
10551 13186 13189 28
10552 13186 13190 28
10553 13191 13192 28
10554 13191 13193 28
10555 13191 13194 28
10556 13191 13195 28
10557 13196 13197 28
10558 13196 13198 28
10559 13196 13199 28
10560 13196 13200 28
10561 13201 13202 28
10562 13201 13203 28
10563 13201 13204 28
10564 13201 13205 28
10565 13206 13207 28
10566 13206 13208 28
10567 13206 13209 28
10568 13206 13210 28
10569 13211 13212 28
10570 13211 13213 28
10571 13211 13214 28
10572 13211 13215 28
10573 13216 13217 28
10574 13216 13218 28
10575 13216 13219 28
10576 13216 13220 28
10577 13221 13222 28
10578 13221 13223 28
10579 13221 13224 28
10580 13221 13225 28
10581 13226 13227 28
10582 13226 13228 28
10583 13226 13229 28
10584 13226 13230 28
10585 13231 13232 28
10586 13231 13233 28
10587 13231 13234 28
10588 13231 13235 28
10589 13236 13237 28
10590 13236 13238 28
10591 13236 13239 28
10592 13236 13240 28
10593 13241 13242 28
10594 13241 13243 28
10595 13241 13244 28
10596 13241 13245 28
10597 13246 13247 28
10598 13246 13248 28
10599 13246 13249 28
10600 13246 13250 28
10601 13251 13252 28
10602 13251 13253 28
10603 13251 13254 28
10604 13251 13255 28
10605 13256 13257 28
10606 13256 13258 28
10607 13256 13259 28
10608 13256 13260 28
10609 13261 13262 28
10610 13261 13263 28
10611 13261 13264 28
10612 13261 13265 28
10613 13266 13267 28
10614 13266 13268 28
10615 13266 13269 28
10616 13266 13270 28
10617 13271 13272 28
10618 13271 13273 28
10619 13271 13274 28
10620 13271 13275 28
10621 13276 13277 28
10622 13276 13278 28
10623 13276 13279 28
10624 13276 13280 28
10625 13281 13282 28
10626 13281 13283 28
10627 13281 13284 28
10628 13281 13285 28
10629 13286 13287 28
10630 13286 13288 28
10631 13286 13289 28
10632 13286 13290 28
10633 13291 13292 28
10634 13291 13293 28
10635 13291 13294 28
10636 13291 13295 28
10637 13296 13297 28
10638 13296 13298 28
10639 13296 13299 28
10640 13296 13300 28
10641 13301 13302 28
10642 13301 13303 28
10643 13301 13304 28
10644 13301 13305 28
10645 13306 13307 28
10646 13306 13308 28
10647 13306 13309 28
10648 13306 13310 28
10649 13311 13312 28
10650 13311 13313 28
10651 13311 13314 28
10652 13311 13315 28
10653 13316 13317 28
10654 13316 13318 28
10655 13316 13319 28
10656 13316 13320 28
10657 13321 13322 28
10658 13321 13323 28
10659 13321 13324 28
10660 13321 13325 28
10661 13326 13327 28
10662 13326 13328 28
10663 13326 13329 28
10664 13326 13330 28
10665 13331 13332 28
10666 13331 13333 28
10667 13331 13334 28
10668 13331 13335 28
10669 13336 13337 28
10670 13336 13338 28
10671 13336 13339 28
10672 13336 13340 28
10673 13341 13342 28
10674 13341 13343 28
10675 13341 13344 28
10676 13341 13345 28
10677 13346 13347 28
10678 13346 13348 28
10679 13346 13349 28
10680 13346 13350 28
10681 13351 13352 28
10682 13351 13353 28
10683 13351 13354 28
10684 13351 13355 28
10685 13356 13357 28
10686 13356 13358 28
10687 13356 13359 28
10688 13356 13360 28
10689 13361 13362 28
10690 13361 13363 28
10691 13361 13364 28
10692 13361 13365 28
10693 13366 13367 28
10694 13366 13368 28
10695 13366 13369 28
10696 13366 13370 28
10697 13371 13372 28
10698 13371 13373 28
10699 13371 13374 28
10700 13371 13375 28
10701 13376 13377 28
10702 13376 13378 28
10703 13376 13379 28
10704 13376 13380 28
10705 13381 13382 28
10706 13381 13383 28
10707 13381 13384 28
10708 13381 13385 28
10709 13386 13387 28
10710 13386 13388 28
10711 13386 13389 28
10712 13386 13390 28
10713 13391 13392 28
10714 13391 13393 28
10715 13391 13394 28
10716 13391 13395 28
10717 13396 13397 28
10718 13396 13398 28
10719 13396 13399 28
10720 13396 13400 28
10721 13401 13402 28
10722 13401 13403 28
10723 13401 13404 28
10724 13401 13405 28
10725 13406 13407 28
10726 13406 13408 28
10727 13406 13409 28
10728 13406 13410 28
10729 13411 13412 28
10730 13411 13413 28
10731 13411 13414 28
10732 13411 13415 28
10733 13416 13417 28
10734 13416 13418 28
10735 13416 13419 28
10736 13416 13420 28
10737 13421 13422 28
10738 13421 13423 28
10739 13421 13424 28
10740 13421 13425 28
10741 13426 13427 28
10742 13426 13428 28
10743 13426 13429 28
10744 13426 13430 28
10745 13431 13432 28
10746 13431 13433 28
10747 13431 13434 28
10748 13431 13435 28
10749 13436 13437 28
10750 13436 13438 28
10751 13436 13439 28
10752 13436 13440 28
10753 13441 13442 28
10754 13441 13443 28
10755 13441 13444 28
10756 13441 13445 28
10757 13446 13447 28
10758 13446 13448 28
10759 13446 13449 28
10760 13446 13450 28
10761 13451 13452 28
10762 13451 13453 28
10763 13451 13454 28
10764 13451 13455 28
10765 13456 13457 28
10766 13456 13458 28
10767 13456 13459 28
10768 13456 13460 28
10769 13461 13462 28
10770 13461 13463 28
10771 13461 13464 28
10772 13461 13465 28
10773 13466 13467 28
10774 13466 13468 28
10775 13466 13469 28
10776 13466 13470 28
10777 13471 13472 28
10778 13471 13473 28
10779 13471 13474 28
10780 13471 13475 28
10781 13476 13477 28
10782 13476 13478 28
10783 13476 13479 28
10784 13476 13480 28
10785 13481 13482 28
10786 13481 13483 28
10787 13481 13484 28
10788 13481 13485 28
10789 13486 13487 28
10790 13486 13488 28
10791 13486 13489 28
10792 13486 13490 28
10793 13491 13492 28
10794 13491 13493 28
10795 13491 13494 28
10796 13491 13495 28
10797 13496 13497 28
10798 13496 13498 28
10799 13496 13499 28
10800 13496 13500 28
10801 13501 13502 28
10802 13501 13503 28
10803 13501 13504 28
10804 13501 13505 28
10805 13506 13507 28
10806 13506 13508 28
10807 13506 13509 28
10808 13506 13510 28
10809 13511 13512 28
10810 13511 13513 28
10811 13511 13514 28
10812 13511 13515 28
10813 13516 13517 28
10814 13516 13518 28
10815 13516 13519 28
10816 13516 13520 28
10817 13521 13522 28
10818 13521 13523 28
10819 13521 13524 28
10820 13521 13525 28
10821 13526 13527 28
10822 13526 13528 28
10823 13526 13529 28
10824 13526 13530 28
10825 13531 13532 28
10826 13531 13533 28
10827 13531 13534 28
10828 13531 13535 28
10829 13536 13537 28
10830 13536 13538 28
10831 13536 13539 28
10832 13536 13540 28
10833 13541 13542 28
10834 13541 13543 28
10835 13541 13544 28
10836 13541 13545 28
10837 13546 13547 28
10838 13546 13548 28
10839 13546 13549 28
10840 13546 13550 28
10841 13551 13552 28
10842 13551 13553 28
10843 13551 13554 28
10844 13551 13555 28
10845 13556 13557 28
10846 13556 13558 28
10847 13556 13559 28
10848 13556 13560 28
10849 13561 13562 28
10850 13561 13563 28
10851 13561 13564 28
10852 13561 13565 28
10853 13566 13567 28
10854 13566 13568 28
10855 13566 13569 28
10856 13566 13570 28
10857 13571 13572 28
10858 13571 13573 28
10859 13571 13574 28
10860 13571 13575 28
10861 13576 13577 28
10862 13576 13578 28
10863 13576 13579 28
10864 13576 13580 28
10865 13581 13582 28
10866 13581 13583 28
10867 13581 13584 28
10868 13581 13585 28
10869 13586 13587 28
10870 13586 13588 28
10871 13586 13589 28
10872 13586 13590 28
10873 13591 13592 28
10874 13591 13593 28
10875 13591 13594 28
10876 13591 13595 28
10877 13596 13597 28
10878 13596 13598 28
10879 13596 13599 28
10880 13596 13600 28
10881 13601 13602 28
10882 13601 13603 28
10883 13601 13604 28
10884 13601 13605 28
10885 13606 13607 28
10886 13606 13608 28
10887 13606 13609 28
10888 13606 13610 28
10889 13611 13612 28
10890 13611 13613 28
10891 13611 13614 28
10892 13611 13615 28
10893 13616 13617 28
10894 13616 13618 28
10895 13616 13619 28
10896 13616 13620 28
10897 13621 13622 28
10898 13621 13623 28
10899 13621 13624 28
10900 13621 13625 28
10901 13626 13627 28
10902 13626 13628 28
10903 13626 13629 28
10904 13626 13630 28
10905 13631 13632 28
10906 13631 13633 28
10907 13631 13634 28
10908 13631 13635 28
10909 13636 13637 28
10910 13636 13638 28
10911 13636 13639 28
10912 13636 13640 28
10913 13641 13642 28
10914 13641 13643 28
10915 13641 13644 28
10916 13641 13645 28
10917 13646 13647 28
10918 13646 13648 28
10919 13646 13649 28
10920 13646 13650 28
10921 13651 13652 28
10922 13651 13653 28
10923 13651 13654 28
10924 13651 13655 28
10925 13656 13657 28
10926 13656 13658 28
10927 13656 13659 28
10928 13656 13660 28
10929 13661 13662 28
10930 13661 13663 28
10931 13661 13664 28
10932 13661 13665 28
10933 13666 13667 28
10934 13666 13668 28
10935 13666 13669 28
10936 13666 13670 28
10937 13671 13672 28
10938 13671 13673 28
10939 13671 13674 28
10940 13671 13675 28
10941 13676 13677 28
10942 13676 13678 28
10943 13676 13679 28
10944 13676 13680 28
10945 13681 13682 28
10946 13681 13683 28
10947 13681 13684 28
10948 13681 13685 28
10949 13686 13687 28
10950 13686 13688 28
10951 13686 13689 28
10952 13686 13690 28
10953 13691 13692 28
10954 13691 13693 28
10955 13691 13694 28
10956 13691 13695 28
10957 13696 13697 28
10958 13696 13698 28
10959 13696 13699 28
10960 13696 13700 28
10961 13701 13702 28
10962 13701 13703 28
10963 13701 13704 28
10964 13701 13705 28
10965 13706 13707 28
10966 13706 13708 28
10967 13706 13709 28
10968 13706 13710 28
10969 13711 13712 28
10970 13711 13713 28
10971 13711 13714 28
10972 13711 13715 28
10973 13716 13717 28
10974 13716 13718 28
10975 13716 13719 28
10976 13716 13720 28
10977 13721 13722 28
10978 13721 13723 28
10979 13721 13724 28
10980 13721 13725 28
10981 13726 13727 28
10982 13726 13728 28
10983 13726 13729 28
10984 13726 13730 28
10985 13731 13732 28
10986 13731 13733 28
10987 13731 13734 28
10988 13731 13735 28
10989 13736 13737 28
10990 13736 13738 28
10991 13736 13739 28
10992 13736 13740 28
10993 13741 13742 28
10994 13741 13743 28
10995 13741 13744 28
10996 13741 13745 28
10997 13746 13747 28
10998 13746 13748 28
10999 13746 13749 28
11000 13746 13750 28
11001 13751 13752 28
11002 13751 13753 28
11003 13751 13754 28
11004 13751 13755 28
11005 13756 13757 28
11006 13756 13758 28
11007 13756 13759 28
11008 13756 13760 28
11009 13761 13762 28
11010 13761 13763 28
11011 13761 13764 28
11012 13761 13765 28
11013 13766 13767 28
11014 13766 13768 28
11015 13766 13769 28
11016 13766 13770 28
11017 13771 13772 28
11018 13771 13773 28
11019 13771 13774 28
11020 13771 13775 28
11021 13776 13777 28
11022 13776 13778 28
11023 13776 13779 28
11024 13776 13780 28
11025 13781 13782 28
11026 13781 13783 28
11027 13781 13784 28
11028 13781 13785 28
11029 13786 13787 28
11030 13786 13788 28
11031 13786 13789 28
11032 13786 13790 28
11033 13791 13792 28
11034 13791 13793 28
11035 13791 13794 28
11036 13791 13795 28
11037 13796 13797 28
11038 13796 13798 28
11039 13796 13799 28
11040 13796 13800 28
11041 13801 13802 28
11042 13801 13803 28
11043 13801 13804 28
11044 13801 13805 28
11045 13806 13807 28
11046 13806 13808 28
11047 13806 13809 28
11048 13806 13810 28
11049 13811 13812 28
11050 13811 13813 28
11051 13811 13814 28
11052 13811 13815 28
11053 13816 13817 28
11054 13816 13818 28
11055 13816 13819 28
11056 13816 13820 28
11057 13821 13822 28
11058 13821 13823 28
11059 13821 13824 28
11060 13821 13825 28
11061 13826 13827 28
11062 13826 13828 28
11063 13826 13829 28
11064 13826 13830 28
11065 13831 13832 28
11066 13831 13833 28
11067 13831 13834 28
11068 13831 13835 28
11069 13836 13837 28
11070 13836 13838 28
11071 13836 13839 28
11072 13836 13840 28
11073 13841 13842 28
11074 13841 13843 28
11075 13841 13844 28
11076 13841 13845 28
11077 13846 13847 28
11078 13846 13848 28
11079 13846 13849 28
11080 13846 13850 28
11081 13851 13852 28
11082 13851 13853 28
11083 13851 13854 28
11084 13851 13855 28
11085 13856 13857 28
11086 13856 13858 28
11087 13856 13859 28
11088 13856 13860 28
11089 13861 13862 28
11090 13861 13863 28
11091 13861 13864 28
11092 13861 13865 28
11093 13866 13867 28
11094 13866 13868 28
11095 13866 13869 28
11096 13866 13870 28
11097 13871 13872 28
11098 13871 13873 28
11099 13871 13874 28
11100 13871 13875 28
11101 13876 13877 28
11102 13876 13878 28
11103 13876 13879 28
11104 13876 13880 28
11105 13881 13882 28
11106 13881 13883 28
11107 13881 13884 28
11108 13881 13885 28
11109 13886 13887 28
11110 13886 13888 28
11111 13886 13889 28
11112 13886 13890 28
11113 13891 13892 28
11114 13891 13893 28
11115 13891 13894 28
11116 13891 13895 28
11117 13896 13897 28
11118 13896 13898 28
11119 13896 13899 28
11120 13896 13900 28
11121 13901 13902 28
11122 13901 13903 28
11123 13901 13904 28
11124 13901 13905 28
11125 13906 13907 28
11126 13906 13908 28
11127 13906 13909 28
11128 13906 13910 28
11129 13911 13912 28
11130 13911 13913 28
11131 13911 13914 28
11132 13911 13915 28
11133 13916 13917 28
11134 13916 13918 28
11135 13916 13919 28
11136 13916 13920 28
11137 13921 13922 28
11138 13921 13923 28
11139 13921 13924 28
11140 13921 13925 28
11141 13926 13927 28
11142 13926 13928 28
11143 13926 13929 28
11144 13926 13930 28
11145 13931 13932 28
11146 13931 13933 28
11147 13931 13934 28
11148 13931 13935 28
11149 13936 13937 28
11150 13936 13938 28
11151 13936 13939 28
11152 13936 13940 28
11153 13941 13942 28
11154 13941 13943 28
11155 13941 13944 28
11156 13941 13945 28
11157 13946 13947 28
11158 13946 13948 28
11159 13946 13949 28
11160 13946 13950 28
11161 13951 13952 28
11162 13951 13953 28
11163 13951 13954 28
11164 13951 13955 28
11165 13956 13957 28
11166 13956 13958 28
11167 13956 13959 28
11168 13956 13960 28
11169 13961 13962 28
11170 13961 13963 28
11171 13961 13964 28
11172 13961 13965 28
11173 13966 13967 28
11174 13966 13968 28
11175 13966 13969 28
11176 13966 13970 28
11177 13971 13972 28
11178 13971 13973 28
11179 13971 13974 28
11180 13971 13975 28
11181 13976 13977 28
11182 13976 13978 28
11183 13976 13979 28
11184 13976 13980 28
11185 13981 13982 28
11186 13981 13983 28
11187 13981 13984 28
11188 13981 13985 28
11189 13986 13987 28
11190 13986 13988 28
11191 13986 13989 28
11192 13986 13990 28
11193 13991 13992 28
11194 13991 13993 28
11195 13991 13994 28
11196 13991 13995 28
11197 13996 13997 28
11198 13996 13998 28
11199 13996 13999 28
11200 13996 14000 28
11201 14001 14002 28
11202 14001 14003 28
11203 14001 14004 28
11204 14001 14005 28
11205 14006 14007 28
11206 14006 14008 28
11207 14006 14009 28
11208 14006 14010 28
11209 14011 14012 28
11210 14011 14013 28
11211 14011 14014 28
11212 14011 14015 28
11213 14016 14017 28
11214 14016 14018 28
11215 14016 14019 28
11216 14016 14020 28
11217 14021 14022 28
11218 14021 14023 28
11219 14021 14024 28
11220 14021 14025 28
11221 14026 14027 28
11222 14026 14028 28
11223 14026 14029 28
11224 14026 14030 28
11225 14031 14032 28
11226 14031 14033 28
11227 14031 14034 28
11228 14031 14035 28
11229 14036 14037 28
11230 14036 14038 28
11231 14036 14039 28
11232 14036 14040 28
11233 14041 14042 28
11234 14041 14043 28
11235 14041 14044 28
11236 14041 14045 28
11237 14046 14047 28
11238 14046 14048 28
11239 14046 14049 28
11240 14046 14050 28
11241 14051 14052 28
11242 14051 14053 28
11243 14051 14054 28
11244 14051 14055 28
11245 14056 14057 28
11246 14056 14058 28
11247 14056 14059 28
11248 14056 14060 28
11249 14061 14062 28
11250 14061 14063 28
11251 14061 14064 28
11252 14061 14065 28
11253 14066 14067 28
11254 14066 14068 28
11255 14066 14069 28
11256 14066 14070 28
11257 14071 14072 28
11258 14071 14073 28
11259 14071 14074 28
11260 14071 14075 28
11261 14076 14077 28
11262 14076 14078 28
11263 14076 14079 28
11264 14076 14080 28
11265 14081 14082 28
11266 14081 14083 28
11267 14081 14084 28
11268 14081 14085 28
11269 14086 14087 28
11270 14086 14088 28
11271 14086 14089 28
11272 14086 14090 28
11273 14091 14092 28
11274 14091 14093 28
11275 14091 14094 28
11276 14091 14095 28
11277 14096 14097 28
11278 14096 14098 28
11279 14096 14099 28
11280 14096 14100 28
11281 14101 14102 28
11282 14101 14103 28
11283 14101 14104 28
11284 14101 14105 28
11285 14106 14107 28
11286 14106 14108 28
11287 14106 14109 28
11288 14106 14110 28
11289 14111 14112 28
11290 14111 14113 28
11291 14111 14114 28
11292 14111 14115 28
11293 14116 14117 28
11294 14116 14118 28
11295 14116 14119 28
11296 14116 14120 28
11297 14121 14122 28
11298 14121 14123 28
11299 14121 14124 28
11300 14121 14125 28
11301 14126 14127 28
11302 14126 14128 28
11303 14126 14129 28
11304 14126 14130 28
11305 14131 14132 28
11306 14131 14133 28
11307 14131 14134 28
11308 14131 14135 28
11309 14136 14137 28
11310 14136 14138 28
11311 14136 14139 28
11312 14136 14140 28
11313 14141 14142 28
11314 14141 14143 28
11315 14141 14144 28
11316 14141 14145 28
11317 14146 14147 28
11318 14146 14148 28
11319 14146 14149 28
11320 14146 14150 28
11321 14151 14152 28
11322 14151 14153 28
11323 14151 14154 28
11324 14151 14155 28
11325 14156 14157 28
11326 14156 14158 28
11327 14156 14159 28
11328 14156 14160 28
11329 14161 14162 28
11330 14161 14163 28
11331 14161 14164 28
11332 14161 14165 28
11333 14166 14167 28
11334 14166 14168 28
11335 14166 14169 28
11336 14166 14170 28
11337 14171 14172 28
11338 14171 14173 28
11339 14171 14174 28
11340 14171 14175 28
11341 14176 14177 28
11342 14176 14178 28
11343 14176 14179 28
11344 14176 14180 28
11345 14181 14182 28
11346 14181 14183 28
11347 14181 14184 28
11348 14181 14185 28
11349 14186 14187 28
11350 14186 14188 28
11351 14186 14189 28
11352 14186 14190 28
11353 14191 14192 28
11354 14191 14193 28
11355 14191 14194 28
11356 14191 14195 28
11357 14196 14197 28
11358 14196 14198 28
11359 14196 14199 28
11360 14196 14200 28
11361 14201 14202 28
11362 14201 14203 28
11363 14201 14204 28
11364 14201 14205 28
11365 14206 14207 28
11366 14206 14208 28
11367 14206 14209 28
11368 14206 14210 28
11369 14211 14212 28
11370 14211 14213 28
11371 14211 14214 28
11372 14211 14215 28
11373 14216 14217 28
11374 14216 14218 28
11375 14216 14219 28
11376 14216 14220 28
11377 14221 14222 28
11378 14221 14223 28
11379 14221 14224 28
11380 14221 14225 28
11381 14226 14227 28
11382 14226 14228 28
11383 14226 14229 28
11384 14226 14230 28
11385 14231 14232 28
11386 14231 14233 28
11387 14231 14234 28
11388 14231 14235 28
11389 14236 14237 28
11390 14236 14238 28
11391 14236 14239 28
11392 14236 14240 28
11393 14241 14242 28
11394 14241 14243 28
11395 14241 14244 28
11396 14241 14245 28
11397 14246 14247 28
11398 14246 14248 28
11399 14246 14249 28
11400 14246 14250 28
11401 14251 14252 28
11402 14251 14253 28
11403 14251 14254 28
11404 14251 14255 28
11405 14256 14257 28
11406 14256 14258 28
11407 14256 14259 28
11408 14256 14260 28
11409 14261 14262 28
11410 14261 14263 28
11411 14261 14264 28
11412 14261 14265 28
11413 14266 14267 28
11414 14266 14268 28
11415 14266 14269 28
11416 14266 14270 28
11417 14271 14272 28
11418 14271 14273 28
11419 14271 14274 28
11420 14271 14275 28
11421 14276 14277 28
11422 14276 14278 28
11423 14276 14279 28
11424 14276 14280 28
11425 14281 14282 28
11426 14281 14283 28
11427 14281 14284 28
11428 14281 14285 28
11429 14286 14287 28
11430 14286 14288 28
11431 14286 14289 28
11432 14286 14290 28
11433 14291 14292 28
11434 14291 14293 28
11435 14291 14294 28
11436 14291 14295 28
11437 14296 14297 28
11438 14296 14298 28
11439 14296 14299 28
11440 14296 14300 28
11441 14301 14302 28
11442 14301 14303 28
11443 14301 14304 28
11444 14301 14305 28
11445 14306 14307 28
11446 14306 14308 28
11447 14306 14309 28
11448 14306 14310 28
11449 14311 14312 28
11450 14311 14313 28
11451 14311 14314 28
11452 14311 14315 28
11453 14316 14317 28
11454 14316 14318 28
11455 14316 14319 28
11456 14316 14320 28
11457 14321 14322 28
11458 14321 14323 28
11459 14321 14324 28
11460 14321 14325 28
11461 14326 14327 28
11462 14326 14328 28
11463 14326 14329 28
11464 14326 14330 28
11465 14331 14332 28
11466 14331 14333 28
11467 14331 14334 28
11468 14331 14335 28
11469 14336 14337 28
11470 14336 14338 28
11471 14336 14339 28
11472 14336 14340 28
11473 14341 14342 28
11474 14341 14343 28
11475 14341 14344 28
11476 14341 14345 28
11477 14346 14347 28
11478 14346 14348 28
11479 14346 14349 28
11480 14346 14350 28
11481 14351 14352 28
11482 14351 14353 28
11483 14351 14354 28
11484 14351 14355 28
11485 14356 14357 28
11486 14356 14358 28
11487 14356 14359 28
11488 14356 14360 28
11489 14361 14362 28
11490 14361 14363 28
11491 14361 14364 28
11492 14361 14365 28
11493 14366 14367 28
11494 14366 14368 28
11495 14366 14369 28
11496 14366 14370 28
11497 14371 14372 28
11498 14371 14373 28
11499 14371 14374 28
11500 14371 14375 28
11501 14376 14377 28
11502 14376 14378 28
11503 14376 14379 28
11504 14376 14380 28
11505 14381 14382 28
11506 14381 14383 28
11507 14381 14384 28
11508 14381 14385 28
11509 14386 14387 28
11510 14386 14388 28
11511 14386 14389 28
11512 14386 14390 28
11513 14391 14392 28
11514 14391 14393 28
11515 14391 14394 28
11516 14391 14395 28
11517 14396 14397 28
11518 14396 14398 28
11519 14396 14399 28
11520 14396 14400 28
11521 14401 14402 28
11522 14401 14403 28
11523 14401 14404 28
11524 14401 14405 28
11525 14406 14407 28
11526 14406 14408 28
11527 14406 14409 28
11528 14406 14410 28
11529 14411 14412 28
11530 14411 14413 28
11531 14411 14414 28
11532 14411 14415 28
11533 14416 14417 28
11534 14416 14418 28
11535 14416 14419 28
11536 14416 14420 28
11537 14421 14422 28
11538 14421 14423 28
11539 14421 14424 28
11540 14421 14425 28
11541 14426 14427 28
11542 14426 14428 28
11543 14426 14429 28
11544 14426 14430 28
11545 14431 14432 28
11546 14431 14433 28
11547 14431 14434 28
11548 14431 14435 28
11549 14436 14437 28
11550 14436 14438 28
11551 14436 14439 28
11552 14436 14440 28
11553 14441 14442 28
11554 14441 14443 28
11555 14441 14444 28
11556 14441 14445 28
11557 14446 14447 28
11558 14446 14448 28
11559 14446 14449 28
11560 14446 14450 28
11561 14451 14452 28
11562 14451 14453 28
11563 14451 14454 28
11564 14451 14455 28
11565 14456 14457 28
11566 14456 14458 28
11567 14456 14459 28
11568 14456 14460 28
11569 14461 14462 28
11570 14461 14463 28
11571 14461 14464 28
11572 14461 14465 28
11573 14466 14467 28
11574 14466 14468 28
11575 14466 14469 28
11576 14466 14470 28
11577 14471 14472 28
11578 14471 14473 28
11579 14471 14474 28
11580 14471 14475 28
11581 14476 14477 28
11582 14476 14478 28
11583 14476 14479 28
11584 14476 14480 28
11585 14481 14482 28
11586 14481 14483 28
11587 14481 14484 28
11588 14481 14485 28
11589 14486 14487 28
11590 14486 14488 28
11591 14486 14489 28
11592 14486 14490 28
11593 14491 14492 28
11594 14491 14493 28
11595 14491 14494 28
11596 14491 14495 28
11597 14496 14497 28
11598 14496 14498 28
11599 14496 14499 28
11600 14496 14500 28
11601 14501 14502 28
11602 14501 14503 28
11603 14501 14504 28
11604 14501 14505 28
11605 14506 14507 28
11606 14506 14508 28
11607 14506 14509 28
11608 14506 14510 28
11609 14511 14512 28
11610 14511 14513 28
11611 14511 14514 28
11612 14511 14515 28
11613 14516 14517 28
11614 14516 14518 28
11615 14516 14519 28
11616 14516 14520 28
11617 14521 14522 28
11618 14521 14523 28
11619 14521 14524 28
11620 14521 14525 28
11621 14526 14527 28
11622 14526 14528 28
11623 14526 14529 28
11624 14526 14530 28
11625 14531 14532 28
11626 14531 14533 28
11627 14531 14534 28
11628 14531 14535 28
11629 14536 14537 28
11630 14536 14538 28
11631 14536 14539 28
11632 14536 14540 28
11633 14541 14542 28
11634 14541 14543 28
11635 14541 14544 28
11636 14541 14545 28
11637 14546 14547 28
11638 14546 14548 28
11639 14546 14549 28
11640 14546 14550 28
11641 14551 14552 28
11642 14551 14553 28
11643 14551 14554 28
11644 14551 14555 28
11645 14556 14557 28
11646 14556 14558 28
11647 14556 14559 28
11648 14556 14560 28
11649 14561 14562 28
11650 14561 14563 28
11651 14561 14564 28
11652 14561 14565 28
11653 14566 14567 28
11654 14566 14568 28
11655 14566 14569 28
11656 14566 14570 28
11657 14571 14572 28
11658 14571 14573 28
11659 14571 14574 28
11660 14571 14575 28
11661 14576 14577 28
11662 14576 14578 28
11663 14576 14579 28
11664 14576 14580 28
11665 14581 14582 28
11666 14581 14583 28
11667 14581 14584 28
11668 14581 14585 28
11669 14586 14587 28
11670 14586 14588 28
11671 14586 14589 28
11672 14586 14590 28
11673 14591 14592 28
11674 14591 14593 28
11675 14591 14594 28
11676 14591 14595 28
11677 14596 14597 28
11678 14596 14598 28
11679 14596 14599 28
11680 14596 14600 28
11681 14601 14602 28
11682 14601 14603 28
11683 14601 14604 28
11684 14601 14605 28
11685 14606 14607 28
11686 14606 14608 28
11687 14606 14609 28
11688 14606 14610 28
11689 14611 14612 28
11690 14611 14613 28
11691 14611 14614 28
11692 14611 14615 28
11693 14616 14617 28
11694 14616 14618 28
11695 14616 14619 28
11696 14616 14620 28
11697 14621 14622 28
11698 14621 14623 28
11699 14621 14624 28
11700 14621 14625 28
11701 14626 14627 28
11702 14626 14628 28
11703 14626 14629 28
11704 14626 14630 28
11705 14631 14632 28
11706 14631 14633 28
11707 14631 14634 28
11708 14631 14635 28
11709 14636 14637 28
11710 14636 14638 28
11711 14636 14639 28
11712 14636 14640 28
11713 14641 14642 28
11714 14641 14643 28
11715 14641 14644 28
11716 14641 14645 28
11717 14646 14647 28
11718 14646 14648 28
11719 14646 14649 28
11720 14646 14650 28
11721 14651 14652 28
11722 14651 14653 28
11723 14651 14654 28
11724 14651 14655 28
11725 14656 14657 28
11726 14656 14658 28
11727 14656 14659 28
11728 14656 14660 28
11729 14661 14662 28
11730 14661 14663 28
11731 14661 14664 28
11732 14661 14665 28
11733 14666 14667 28
11734 14666 14668 28
11735 14666 14669 28
11736 14666 14670 28
11737 14671 14672 28
11738 14671 14673 28
11739 14671 14674 28
11740 14671 14675 28
11741 14676 14677 28
11742 14676 14678 28
11743 14676 14679 28
11744 14676 14680 28
11745 14681 14682 28
11746 14681 14683 28
11747 14681 14684 28
11748 14681 14685 28
11749 14686 14687 28
11750 14686 14688 28
11751 14686 14689 28
11752 14686 14690 28
11753 14691 14692 28
11754 14691 14693 28
11755 14691 14694 28
11756 14691 14695 28
11757 14696 14697 28
11758 14696 14698 28
11759 14696 14699 28
11760 14696 14700 28
11761 14701 14702 28
11762 14701 14703 28
11763 14701 14704 28
11764 14701 14705 28
11765 14706 14707 28
11766 14706 14708 28
11767 14706 14709 28
11768 14706 14710 28
11769 14711 14712 28
11770 14711 14713 28
11771 14711 14714 28
11772 14711 14715 28
11773 14716 14717 28
11774 14716 14718 28
11775 14716 14719 28
11776 14716 14720 28
11777 14721 14722 28
11778 14721 14723 28
11779 14721 14724 28
11780 14721 14725 28
11781 14726 14727 28
11782 14726 14728 28
11783 14726 14729 28
11784 14726 14730 28
11785 14731 14732 28
11786 14731 14733 28
11787 14731 14734 28
11788 14731 14735 28
11789 14736 14737 28
11790 14736 14738 28
11791 14736 14739 28
11792 14736 14740 28
11793 14741 14742 28
11794 14741 14743 28
11795 14741 14744 28
11796 14741 14745 28
11797 14746 14747 28
11798 14746 14748 28
11799 14746 14749 28
11800 14746 14750 28
11801 14751 14752 28
11802 14751 14753 28
11803 14751 14754 28
11804 14751 14755 28
11805 14756 14757 28
11806 14756 14758 28
11807 14756 14759 28
11808 14756 14760 28
11809 14761 14762 28
11810 14761 14763 28
11811 14761 14764 28
11812 14761 14765 28
11813 14766 14767 28
11814 14766 14768 28
11815 14766 14769 28
11816 14766 14770 28
11817 14771 14772 28
11818 14771 14773 28
11819 14771 14774 28
11820 14771 14775 28
11821 14776 14777 28
11822 14776 14778 28
11823 14776 14779 28
11824 14776 14780 28
11825 14781 14782 28
11826 14781 14783 28
11827 14781 14784 28
11828 14781 14785 28
11829 14786 14787 28
11830 14786 14788 28
11831 14786 14789 28
11832 14786 14790 28
11833 14791 14792 28
11834 14791 14793 28
11835 14791 14794 28
11836 14791 14795 28
11837 14796 14797 28
11838 14796 14798 28
11839 14796 14799 28
11840 14796 14800 28
11841 14801 14802 28
11842 14801 14803 28
11843 14801 14804 28
11844 14801 14805 28
11845 14806 14807 28
11846 14806 14808 28
11847 14806 14809 28
11848 14806 14810 28
11849 14811 14812 28
11850 14811 14813 28
11851 14811 14814 28
11852 14811 14815 28
11853 14816 14817 28
11854 14816 14818 28
11855 14816 14819 28
11856 14816 14820 28
11857 14821 14822 28
11858 14821 14823 28
11859 14821 14824 28
11860 14821 14825 28
11861 14826 14827 28
11862 14826 14828 28
11863 14826 14829 28
11864 14826 14830 28
11865 14831 14832 28
11866 14831 14833 28
11867 14831 14834 28
11868 14831 14835 28
11869 14836 14837 28
11870 14836 14838 28
11871 14836 14839 28
11872 14836 14840 28
11873 14841 14842 28
11874 14841 14843 28
11875 14841 14844 28
11876 14841 14845 28
11877 14846 14847 28
11878 14846 14848 28
11879 14846 14849 28
11880 14846 14850 28
11881 14851 14852 28
11882 14851 14853 28
11883 14851 14854 28
11884 14851 14855 28
11885 14856 14857 28
11886 14856 14858 28
11887 14856 14859 28
11888 14856 14860 28
11889 14861 14862 28
11890 14861 14863 28
11891 14861 14864 28
11892 14861 14865 28
11893 14866 14867 28
11894 14866 14868 28
11895 14866 14869 28
11896 14866 14870 28
11897 14871 14872 28
11898 14871 14873 28
11899 14871 14874 28
11900 14871 14875 28
11901 14876 14877 28
11902 14876 14878 28
11903 14876 14879 28
11904 14876 14880 28
11905 14881 14882 28
11906 14881 14883 28
11907 14881 14884 28
11908 14881 14885 28
11909 14886 14887 28
11910 14886 14888 28
11911 14886 14889 28
11912 14886 14890 28
11913 14891 14892 28
11914 14891 14893 28
11915 14891 14894 28
11916 14891 14895 28
11917 14896 14897 28
11918 14896 14898 28
11919 14896 14899 28
11920 14896 14900 28
11921 14901 14902 28
11922 14901 14903 28
11923 14901 14904 28
11924 14901 14905 28
11925 14906 14907 28
11926 14906 14908 28
11927 14906 14909 28
11928 14906 14910 28
11929 14911 14912 28
11930 14911 14913 28
11931 14911 14914 28
11932 14911 14915 28
11933 14916 14917 28
11934 14916 14918 28
11935 14916 14919 28
11936 14916 14920 28
11937 14921 14922 28
11938 14921 14923 28
11939 14921 14924 28
11940 14921 14925 28
11941 14926 14927 28
11942 14926 14928 28
11943 14926 14929 28
11944 14926 14930 28
11945 14931 14932 28
11946 14931 14933 28
11947 14931 14934 28
11948 14931 14935 28
11949 14936 14937 28
11950 14936 14938 28
11951 14936 14939 28
11952 14936 14940 28
11953 14941 14942 28
11954 14941 14943 28
11955 14941 14944 28
11956 14941 14945 28
11957 14946 14947 28
11958 14946 14948 28
11959 14946 14949 28
11960 14946 14950 28
11961 14951 14952 28
11962 14951 14953 28
11963 14951 14954 28
11964 14951 14955 28
11965 14956 14957 28
11966 14956 14958 28
11967 14956 14959 28
11968 14956 14960 28
11969 14961 14962 28
11970 14961 14963 28
11971 14961 14964 28
11972 14961 14965 28
11973 14966 14967 28
11974 14966 14968 28
11975 14966 14969 28
11976 14966 14970 28
11977 14971 14972 28
11978 14971 14973 28
11979 14971 14974 28
11980 14971 14975 28
11981 14976 14977 28
11982 14976 14978 28
11983 14976 14979 28
11984 14976 14980 28
11985 14981 14982 28
11986 14981 14983 28
11987 14981 14984 28
11988 14981 14985 28
11989 14986 14987 28
11990 14986 14988 28
11991 14986 14989 28
11992 14986 14990 28
11993 14991 14992 28
11994 14991 14993 28
11995 14991 14994 28
11996 14991 14995 28
11997 14996 14997 28
11998 14996 14998 28
11999 14996 14999 28
12000 14996 15000 28
12001 15001 15002 28
12002 15001 15003 28
12003 15001 15004 28
12004 15001 15005 28
12005 15006 15007 28
12006 15006 15008 28
12007 15006 15009 28
12008 15006 15010 28
12009 15011 15012 28
12010 15011 15013 28
12011 15011 15014 28
12012 15011 15015 28
12013 15016 15017 28
12014 15016 15018 28
12015 15016 15019 28
12016 15016 15020 28
12017 15021 15022 28
12018 15021 15023 28
12019 15021 15024 28
12020 15021 15025 28
12021 15026 15027 28
12022 15026 15028 28
12023 15026 15029 28
12024 15026 15030 28
12025 15031 15032 28
12026 15031 15033 28
12027 15031 15034 28
12028 15031 15035 28
12029 15036 15037 28
12030 15036 15038 28
12031 15036 15039 28
12032 15036 15040 28
12033 15041 15042 28
12034 15041 15043 28
12035 15041 15044 28
12036 15041 15045 28
12037 15046 15047 28
12038 15046 15048 28
12039 15046 15049 28
12040 15046 15050 28
12041 15051 15052 28
12042 15051 15053 28
12043 15051 15054 28
12044 15051 15055 28
12045 15056 15057 28
12046 15056 15058 28
12047 15056 15059 28
12048 15056 15060 28
12049 15061 15062 28
12050 15061 15063 28
12051 15061 15064 28
12052 15061 15065 28
12053 15066 15067 28
12054 15066 15068 28
12055 15066 15069 28
12056 15066 15070 28
12057 15071 15072 28
12058 15071 15073 28
12059 15071 15074 28
12060 15071 15075 28
12061 15076 15077 28
12062 15076 15078 28
12063 15076 15079 28
12064 15076 15080 28
12065 15081 15082 28
12066 15081 15083 28
12067 15081 15084 28
12068 15081 15085 28
12069 15086 15087 28
12070 15086 15088 28
12071 15086 15089 28
12072 15086 15090 28
12073 15091 15092 28
12074 15091 15093 28
12075 15091 15094 28
12076 15091 15095 28
12077 15096 15097 28
12078 15096 15098 28
12079 15096 15099 28
12080 15096 15100 28
12081 15101 15102 28
12082 15101 15103 28
12083 15101 15104 28
12084 15101 15105 28
12085 15106 15107 28
12086 15106 15108 28
12087 15106 15109 28
12088 15106 15110 28
12089 15111 15112 28
12090 15111 15113 28
12091 15111 15114 28
12092 15111 15115 28
12093 15116 15117 28
12094 15116 15118 28
12095 15116 15119 28
12096 15116 15120 28
12097 15121 15122 28
12098 15121 15123 28
12099 15121 15124 28
12100 15121 15125 28
12101 15126 15127 28
12102 15126 15128 28
12103 15126 15129 28
12104 15126 15130 28
12105 15131 15132 28
12106 15131 15133 28
12107 15131 15134 28
12108 15131 15135 28
12109 15136 15137 28
12110 15136 15138 28
12111 15136 15139 28
12112 15136 15140 28
12113 15141 15142 28
12114 15141 15143 28
12115 15141 15144 28
12116 15141 15145 28
12117 15146 15147 28
12118 15146 15148 28
12119 15146 15149 28
12120 15146 15150 28
12121 15151 15152 28
12122 15151 15153 28
12123 15151 15154 28
12124 15151 15155 28
12125 15156 15157 28
12126 15156 15158 28
12127 15156 15159 28
12128 15156 15160 28
12129 15161 15162 28
12130 15161 15163 28
12131 15161 15164 28
12132 15161 15165 28
12133 15166 15167 28
12134 15166 15168 28
12135 15166 15169 28
12136 15166 15170 28
12137 15171 15172 28
12138 15171 15173 28
12139 15171 15174 28
12140 15171 15175 28
12141 15176 15177 28
12142 15176 15178 28
12143 15176 15179 28
12144 15176 15180 28
12145 15181 15182 28
12146 15181 15183 28
12147 15181 15184 28
12148 15181 15185 28
12149 15186 15187 28
12150 15186 15188 28
12151 15186 15189 28
12152 15186 15190 28
12153 15191 15192 28
12154 15191 15193 28
12155 15191 15194 28
12156 15191 15195 28
12157 15196 15197 28
12158 15196 15198 28
12159 15196 15199 28
12160 15196 15200 28
12161 15201 15202 28
12162 15201 15203 28
12163 15201 15204 28
12164 15201 15205 28
12165 15206 15207 28
12166 15206 15208 28
12167 15206 15209 28
12168 15206 15210 28
12169 15211 15212 28
12170 15211 15213 28
12171 15211 15214 28
12172 15211 15215 28
12173 15216 15217 28
12174 15216 15218 28
12175 15216 15219 28
12176 15216 15220 28
12177 15221 15222 28
12178 15221 15223 28
12179 15221 15224 28
12180 15221 15225 28
12181 15226 15227 28
12182 15226 15228 28
12183 15226 15229 28
12184 15226 15230 28
12185 15231 15232 28
12186 15231 15233 28
12187 15231 15234 28
12188 15231 15235 28
12189 15236 15237 28
12190 15236 15238 28
12191 15236 15239 28
12192 15236 15240 28
12193 15241 15242 28
12194 15241 15243 28
12195 15241 15244 28
12196 15241 15245 28
12197 15246 15247 28
12198 15246 15248 28
12199 15246 15249 28
12200 15246 15250 28
12201 15251 15252 28
12202 15251 15253 28
12203 15251 15254 28
12204 15251 15255 28
12205 15256 15257 28
12206 15256 15258 28
12207 15256 15259 28
12208 15256 15260 28
12209 15261 15262 28
12210 15261 15263 28
12211 15261 15264 28
12212 15261 15265 28
12213 15266 15267 28
12214 15266 15268 28
12215 15266 15269 28
12216 15266 15270 28
12217 15271 15272 28
12218 15271 15273 28
12219 15271 15274 28
12220 15271 15275 28
12221 15276 15277 28
12222 15276 15278 28
12223 15276 15279 28
12224 15276 15280 28
12225 15281 15282 28
12226 15281 15283 28
12227 15281 15284 28
12228 15281 15285 28
12229 15286 15287 28
12230 15286 15288 28
12231 15286 15289 28
12232 15286 15290 28
12233 15291 15292 28
12234 15291 15293 28
12235 15291 15294 28
12236 15291 15295 28
12237 15296 15297 28
12238 15296 15298 28
12239 15296 15299 28
12240 15296 15300 28
12241 15301 15302 28
12242 15301 15303 28
12243 15301 15304 28
12244 15301 15305 28
12245 15306 15307 28
12246 15306 15308 28
12247 15306 15309 28
12248 15306 15310 28
12249 15311 15312 28
12250 15311 15313 28
12251 15311 15314 28
12252 15311 15315 28
12253 15316 15317 28
12254 15316 15318 28
12255 15316 15319 28
12256 15316 15320 28
12257 15321 15322 28
12258 15321 15323 28
12259 15321 15324 28
12260 15321 15325 28
12261 15326 15327 28
12262 15326 15328 28
12263 15326 15329 28
12264 15326 15330 28
12265 15331 15332 28
12266 15331 15333 28
12267 15331 15334 28
12268 15331 15335 28
12269 15336 15337 28
12270 15336 15338 28
12271 15336 15339 28
12272 15336 15340 28
12273 15341 15342 28
12274 15341 15343 28
12275 15341 15344 28
12276 15341 15345 28
12277 15346 15347 28
12278 15346 15348 28
12279 15346 15349 28
12280 15346 15350 28
12281 15351 15352 28
12282 15351 15353 28
12283 15351 15354 28
12284 15351 15355 28
12285 15356 15357 28
12286 15356 15358 28
12287 15356 15359 28
12288 15356 15360 28
12289 15361 15362 28
12290 15361 15363 28
12291 15361 15364 28
12292 15361 15365 28
12293 15366 15367 28
12294 15366 15368 28
12295 15366 15369 28
12296 15366 15370 28
12297 15371 15372 28
12298 15371 15373 28
12299 15371 15374 28
12300 15371 15375 28
12301 15376 15377 28
12302 15376 15378 28
12303 15376 15379 28
12304 15376 15380 28
12305 15381 15382 28
12306 15381 15383 28
12307 15381 15384 28
12308 15381 15385 28
12309 15386 15387 28
12310 15386 15388 28
12311 15386 15389 28
12312 15386 15390 28
12313 15391 15392 28
12314 15391 15393 28
12315 15391 15394 28
12316 15391 15395 28
12317 15396 15397 28
12318 15396 15398 28
12319 15396 15399 28
12320 15396 15400 28
12321 15401 15402 28
12322 15401 15403 28
12323 15401 15404 28
12324 15401 15405 28
12325 15406 15407 28
12326 15406 15408 28
12327 15406 15409 28
12328 15406 15410 28
12329 15411 15412 28
12330 15411 15413 28
12331 15411 15414 28
12332 15411 15415 28
12333 15416 15417 28
12334 15416 15418 28
12335 15416 15419 28
12336 15416 15420 28
12337 15421 15422 28
12338 15421 15423 28
12339 15421 15424 28
12340 15421 15425 28
12341 15426 15427 28
12342 15426 15428 28
12343 15426 15429 28
12344 15426 15430 28
12345 15431 15432 28
12346 15431 15433 28
12347 15431 15434 28
12348 15431 15435 28
12349 15436 15437 28
12350 15436 15438 28
12351 15436 15439 28
12352 15436 15440 28
12353 15441 15442 28
12354 15441 15443 28
12355 15441 15444 28
12356 15441 15445 28
12357 15446 15447 28
12358 15446 15448 28
12359 15446 15449 28
12360 15446 15450 28
12361 15451 15452 28
12362 15451 15453 28
12363 15451 15454 28
12364 15451 15455 28
12365 15456 15457 28
12366 15456 15458 28
12367 15456 15459 28
12368 15456 15460 28
12369 15461 15462 28
12370 15461 15463 28
12371 15461 15464 28
12372 15461 15465 28
12373 15466 15467 28
12374 15466 15468 28
12375 15466 15469 28
12376 15466 15470 28
12377 15471 15472 28
12378 15471 15473 28
12379 15471 15474 28
12380 15471 15475 28
12381 15476 15477 28
12382 15476 15478 28
12383 15476 15479 28
12384 15476 15480 28
12385 15481 15482 28
12386 15481 15483 28
12387 15481 15484 28
12388 15481 15485 28
12389 15486 15487 28
12390 15486 15488 28
12391 15486 15489 28
12392 15486 15490 28
12393 15491 15492 28
12394 15491 15493 28
12395 15491 15494 28
12396 15491 15495 28
12397 15496 15497 28
12398 15496 15498 28
12399 15496 15499 28
12400 15496 15500 28
12401 15501 15502 28
12402 15501 15503 28
12403 15501 15504 28
12404 15501 15505 28
12405 15506 15507 28
12406 15506 15508 28
12407 15506 15509 28
12408 15506 15510 28
12409 15511 15512 28
12410 15511 15513 28
12411 15511 15514 28
12412 15511 15515 28
12413 15516 15517 28
12414 15516 15518 28
12415 15516 15519 28
12416 15516 15520 28
12417 15521 15522 28
12418 15521 15523 28
12419 15521 15524 28
12420 15521 15525 28
12421 15526 15527 28
12422 15526 15528 28
12423 15526 15529 28
12424 15526 15530 28
12425 15531 15532 28
12426 15531 15533 28
12427 15531 15534 28
12428 15531 15535 28
12429 15536 15537 28
12430 15536 15538 28
12431 15536 15539 28
12432 15536 15540 28
12433 15541 15542 28
12434 15541 15543 28
12435 15541 15544 28
12436 15541 15545 28
12437 15546 15547 28
12438 15546 15548 28
12439 15546 15549 28
12440 15546 15550 28
12441 15551 15552 28
12442 15551 15553 28
12443 15551 15554 28
12444 15551 15555 28
12445 15556 15557 28
12446 15556 15558 28
12447 15556 15559 28
12448 15556 15560 28
12449 15561 15562 28
12450 15561 15563 28
12451 15561 15564 28
12452 15561 15565 28
12453 15566 15567 28
12454 15566 15568 28
12455 15566 15569 28
12456 15566 15570 28
12457 15571 15572 28
12458 15571 15573 28
12459 15571 15574 28
12460 15571 15575 28
12461 15576 15577 28
12462 15576 15578 28
12463 15576 15579 28
12464 15576 15580 28
12465 15581 15582 28
12466 15581 15583 28
12467 15581 15584 28
12468 15581 15585 28
12469 15586 15587 28
12470 15586 15588 28
12471 15586 15589 28
12472 15586 15590 28
12473 15591 15592 28
12474 15591 15593 28
12475 15591 15594 28
12476 15591 15595 28
12477 15596 15597 28
12478 15596 15598 28
12479 15596 15599 28
12480 15596 15600 28
12481 15601 15602 28
12482 15601 15603 28
12483 15601 15604 28
12484 15601 15605 28
12485 15606 15607 28
12486 15606 15608 28
12487 15606 15609 28
12488 15606 15610 28
12489 15611 15612 28
12490 15611 15613 28
12491 15611 15614 28
12492 15611 15615 28
12493 15616 15617 28
12494 15616 15618 28
12495 15616 15619 28
12496 15616 15620 28
12497 15621 15622 28
12498 15621 15623 28
12499 15621 15624 28
12500 15621 15625 28
12501 15626 15627 28
12502 15626 15628 28
12503 15626 15629 28
12504 15626 15630 28
12505 15631 15632 28
12506 15631 15633 28
12507 15631 15634 28
12508 15631 15635 28
12509 15636 15637 28
12510 15636 15638 28
12511 15636 15639 28
12512 15636 15640 28
12513 15641 15642 28
12514 15641 15643 28
12515 15641 15644 28
12516 15641 15645 28
12517 15646 15647 28
12518 15646 15648 28
12519 15646 15649 28
12520 15646 15650 28
12521 15651 15652 28
12522 15651 15653 28
12523 15651 15654 28
12524 15651 15655 28
12525 15656 15657 28
12526 15656 15658 28
12527 15656 15659 28
12528 15656 15660 28
12529 15661 15662 28
12530 15661 15663 28
12531 15661 15664 28
12532 15661 15665 28
12533 15666 15667 28
12534 15666 15668 28
12535 15666 15669 28
12536 15666 15670 28
12537 15671 15672 28
12538 15671 15673 28
12539 15671 15674 28
12540 15671 15675 28
12541 15676 15677 28
12542 15676 15678 28
12543 15676 15679 28
12544 15676 15680 28
12545 15681 15682 28
12546 15681 15683 28
12547 15681 15684 28
12548 15681 15685 28
12549 15686 15687 28
12550 15686 15688 28
12551 15686 15689 28
12552 15686 15690 28
12553 15691 15692 28
12554 15691 15693 28
12555 15691 15694 28
12556 15691 15695 28
12557 15696 15697 28
12558 15696 15698 28
12559 15696 15699 28
12560 15696 15700 28
12561 15701 15702 28
12562 15701 15703 28
12563 15701 15704 28
12564 15701 15705 28
12565 15706 15707 28
12566 15706 15708 28
12567 15706 15709 28
12568 15706 15710 28
12569 15711 15712 28
12570 15711 15713 28
12571 15711 15714 28
12572 15711 15715 28
12573 15716 15717 28
12574 15716 15718 28
12575 15716 15719 28
12576 15716 15720 28
12577 15721 15722 28
12578 15721 15723 28
12579 15721 15724 28
12580 15721 15725 28
12581 15726 15727 28
12582 15726 15728 28
12583 15726 15729 28
12584 15726 15730 28
12585 15731 15732 28
12586 15731 15733 28
12587 15731 15734 28
12588 15731 15735 28
12589 15736 15737 28
12590 15736 15738 28
12591 15736 15739 28
12592 15736 15740 28
12593 15741 15742 28
12594 15741 15743 28
12595 15741 15744 28
12596 15741 15745 28
12597 15746 15747 28
12598 15746 15748 28
12599 15746 15749 28
12600 15746 15750 28
12601 15751 15752 28
12602 15751 15753 28
12603 15751 15754 28
12604 15751 15755 28
12605 15756 15757 28
12606 15756 15758 28
12607 15756 15759 28
12608 15756 15760 28
12609 15761 15762 28
12610 15761 15763 28
12611 15761 15764 28
12612 15761 15765 28
12613 15766 15767 28
12614 15766 15768 28
12615 15766 15769 28
12616 15766 15770 28
12617 15771 15772 28
12618 15771 15773 28
12619 15771 15774 28
12620 15771 15775 28
12621 15776 15777 28
12622 15776 15778 28
12623 15776 15779 28
12624 15776 15780 28
12625 15781 15782 28
12626 15781 15783 28
12627 15781 15784 28
12628 15781 15785 28
12629 15786 15787 28
12630 15786 15788 28
12631 15786 15789 28
12632 15786 15790 28
12633 15791 15792 28
12634 15791 15793 28
12635 15791 15794 28
12636 15791 15795 28
12637 15796 15797 28
12638 15796 15798 28
12639 15796 15799 28
12640 15796 15800 28
12641 15801 15802 28
12642 15801 15803 28
12643 15801 15804 28
12644 15801 15805 28
12645 15806 15807 28
12646 15806 15808 28
12647 15806 15809 28
12648 15806 15810 28
12649 15811 15812 28
12650 15811 15813 28
12651 15811 15814 28
12652 15811 15815 28
12653 15816 15817 28
12654 15816 15818 28
12655 15816 15819 28
12656 15816 15820 28
12657 15821 15822 28
12658 15821 15823 28
12659 15821 15824 28
12660 15821 15825 28
12661 15826 15827 28
12662 15826 15828 28
12663 15826 15829 28
12664 15826 15830 28
12665 15831 15832 28
12666 15831 15833 28
12667 15831 15834 28
12668 15831 15835 28
12669 15836 15837 28
12670 15836 15838 28
12671 15836 15839 28
12672 15836 15840 28
12673 15841 15842 28
12674 15841 15843 28
12675 15841 15844 28
12676 15841 15845 28
12677 15846 15847 28
12678 15846 15848 28
12679 15846 15849 28
12680 15846 15850 28
12681 15851 15852 28
12682 15851 15853 28
12683 15851 15854 28
12684 15851 15855 28
12685 15856 15857 28
12686 15856 15858 28
12687 15856 15859 28
12688 15856 15860 28
12689 15861 15862 28
12690 15861 15863 28
12691 15861 15864 28
12692 15861 15865 28
12693 15866 15867 28
12694 15866 15868 28
12695 15866 15869 28
12696 15866 15870 28
12697 15871 15872 28
12698 15871 15873 28
12699 15871 15874 28
12700 15871 15875 28
12701 15876 15877 28
12702 15876 15878 28
12703 15876 15879 28
12704 15876 15880 28
12705 15881 15882 28
12706 15881 15883 28
12707 15881 15884 28
12708 15881 15885 28
12709 15886 15887 28
12710 15886 15888 28
12711 15886 15889 28
12712 15886 15890 28
12713 15891 15892 28
12714 15891 15893 28
12715 15891 15894 28
12716 15891 15895 28
12717 15896 15897 28
12718 15896 15898 28
12719 15896 15899 28
12720 15896 15900 28
12721 15901 15902 28
12722 15901 15903 28
12723 15901 15904 28
12724 15901 15905 28
12725 15906 15907 28
12726 15906 15908 28
12727 15906 15909 28
12728 15906 15910 28
12729 15911 15912 28
12730 15911 15913 28
12731 15911 15914 28
12732 15911 15915 28
12733 15916 15917 28
12734 15916 15918 28
12735 15916 15919 28
12736 15916 15920 28
12737 15921 15922 28
12738 15921 15923 28
12739 15921 15924 28
12740 15921 15925 28
12741 15926 15927 28
12742 15926 15928 28
12743 15926 15929 28
12744 15926 15930 28
12745 15931 15932 28
12746 15931 15933 28
12747 15931 15934 28
12748 15931 15935 28
12749 15936 15937 28
12750 15936 15938 28
12751 15936 15939 28
12752 15936 15940 28
12753 15941 15942 28
12754 15941 15943 28
12755 15941 15944 28
12756 15941 15945 28
12757 15946 15947 28
12758 15946 15948 28
12759 15946 15949 28
12760 15946 15950 28
12761 15951 15952 28
12762 15951 15953 28
12763 15951 15954 28
12764 15951 15955 28
12765 15956 15957 28
12766 15956 15958 28
12767 15956 15959 28
12768 15956 15960 28
12769 15961 15962 28
12770 15961 15963 28
12771 15961 15964 28
12772 15961 15965 28
12773 15966 15967 28
12774 15966 15968 28
12775 15966 15969 28
12776 15966 15970 28
12777 15971 15972 28
12778 15971 15973 28
12779 15971 15974 28
12780 15971 15975 28
12781 15976 15977 28
12782 15976 15978 28
12783 15976 15979 28
12784 15976 15980 28
12785 15981 15982 28
12786 15981 15983 28
12787 15981 15984 28
12788 15981 15985 28
12789 15986 15987 28
12790 15986 15988 28
12791 15986 15989 28
12792 15986 15990 28
12793 15991 15992 28
12794 15991 15993 28
12795 15991 15994 28
12796 15991 15995 28
12797 15996 15997 28
12798 15996 15998 28
12799 15996 15999 28
12800 15996 16000 28
12801 16001 16002 28
12802 16001 16003 28
12803 16001 16004 28
12804 16001 16005 28
12805 16006 16007 28
12806 16006 16008 28
12807 16006 16009 28
12808 16006 16010 28
12809 16011 16012 28
12810 16011 16013 28
12811 16011 16014 28
12812 16011 16015 28
12813 16016 16017 28
12814 16016 16018 28
12815 16016 16019 28
12816 16016 16020 28
12817 16021 16022 28
12818 16021 16023 28
12819 16021 16024 28
12820 16021 16025 28
12821 16026 16027 28
12822 16026 16028 28
12823 16026 16029 28
12824 16026 16030 28
12825 16031 16032 28
12826 16031 16033 28
12827 16031 16034 28
12828 16031 16035 28
12829 16036 16037 28
12830 16036 16038 28
12831 16036 16039 28
12832 16036 16040 28
12833 16041 16042 28
12834 16041 16043 28
12835 16041 16044 28
12836 16041 16045 28
12837 16046 16047 28
12838 16046 16048 28
12839 16046 16049 28
12840 16046 16050 28
12841 16051 16052 28
12842 16051 16053 28
12843 16051 16054 28
12844 16051 16055 28
12845 16056 16057 28
12846 16056 16058 28
12847 16056 16059 28
12848 16056 16060 28
12849 16061 16062 28
12850 16061 16063 28
12851 16061 16064 28
12852 16061 16065 28
12853 16066 16067 28
12854 16066 16068 28
12855 16066 16069 28
12856 16066 16070 28
12857 16071 16072 28
12858 16071 16073 28
12859 16071 16074 28
12860 16071 16075 28
12861 16076 16077 28
12862 16076 16078 28
12863 16076 16079 28
12864 16076 16080 28
12865 16081 16082 28
12866 16081 16083 28
12867 16081 16084 28
12868 16081 16085 28
12869 16086 16087 28
12870 16086 16088 28
12871 16086 16089 28
12872 16086 16090 28
12873 16091 16092 28
12874 16091 16093 28
12875 16091 16094 28
12876 16091 16095 28
12877 16096 16097 28
12878 16096 16098 28
12879 16096 16099 28
12880 16096 16100 28
12881 16101 16102 28
12882 16101 16103 28
12883 16101 16104 28
12884 16101 16105 28
12885 16106 16107 28
12886 16106 16108 28
12887 16106 16109 28
12888 16106 16110 28
12889 16111 16112 28
12890 16111 16113 28
12891 16111 16114 28
12892 16111 16115 28
12893 16116 16117 28
12894 16116 16118 28
12895 16116 16119 28
12896 16116 16120 28
12897 16121 16122 28
12898 16121 16123 28
12899 16121 16124 28
12900 16121 16125 28
12901 16126 16127 28
12902 16126 16128 28
12903 16126 16129 28
12904 16126 16130 28
12905 16131 16132 28
12906 16131 16133 28
12907 16131 16134 28
12908 16131 16135 28
12909 16136 16137 28
12910 16136 16138 28
12911 16136 16139 28
12912 16136 16140 28
12913 16141 16142 28
12914 16141 16143 28
12915 16141 16144 28
12916 16141 16145 28
12917 16146 16147 28
12918 16146 16148 28
12919 16146 16149 28
12920 16146 16150 28
12921 16151 16152 28
12922 16151 16153 28
12923 16151 16154 28
12924 16151 16155 28
12925 16156 16157 28
12926 16156 16158 28
12927 16156 16159 28
12928 16156 16160 28
12929 16161 16162 28
12930 16161 16163 28
12931 16161 16164 28
12932 16161 16165 28
12933 16166 16167 28
12934 16166 16168 28
12935 16166 16169 28
12936 16166 16170 28
12937 16171 16172 28
12938 16171 16173 28
12939 16171 16174 28
12940 16171 16175 28
12941 16176 16177 28
12942 16176 16178 28
12943 16176 16179 28
12944 16176 16180 28
12945 16181 16182 28
12946 16181 16183 28
12947 16181 16184 28
12948 16181 16185 28
12949 16186 16187 28
12950 16186 16188 28
12951 16186 16189 28
12952 16186 16190 28
12953 16191 16192 28
12954 16191 16193 28
12955 16191 16194 28
12956 16191 16195 28
12957 16196 16197 28
12958 16196 16198 28
12959 16196 16199 28
12960 16196 16200 28
12961 16201 16202 28
12962 16201 16203 28
12963 16201 16204 28
12964 16201 16205 28
12965 16206 16207 28
12966 16206 16208 28
12967 16206 16209 28
12968 16206 16210 28
12969 16211 16212 28
12970 16211 16213 28
12971 16211 16214 28
12972 16211 16215 28
12973 16216 16217 28
12974 16216 16218 28
12975 16216 16219 28
12976 16216 16220 28
12977 16221 16222 28
12978 16221 16223 28
12979 16221 16224 28
12980 16221 16225 28
12981 16226 16227 28
12982 16226 16228 28
12983 16226 16229 28
12984 16226 16230 28
12985 16231 16232 28
12986 16231 16233 28
12987 16231 16234 28
12988 16231 16235 28
12989 16236 16237 28
12990 16236 16238 28
12991 16236 16239 28
12992 16236 16240 28
12993 16241 16242 28
12994 16241 16243 28
12995 16241 16244 28
12996 16241 16245 28
12997 16246 16247 28
12998 16246 16248 28
12999 16246 16249 28
13000 16246 16250 28
13001 16251 16252 28
13002 16251 16253 28
13003 16251 16254 28
13004 16251 16255 28
13005 16256 16257 28
13006 16256 16258 28
13007 16256 16259 28
13008 16256 16260 28
13009 16261 16262 28
13010 16261 16263 28
13011 16261 16264 28
13012 16261 16265 28
13013 16266 16267 28
13014 16266 16268 28
13015 16266 16269 28
13016 16266 16270 28
13017 16271 16272 28
13018 16271 16273 28
13019 16271 16274 28
13020 16271 16275 28
13021 16276 16277 28
13022 16276 16278 28
13023 16276 16279 28
13024 16276 16280 28
13025 16281 16282 28
13026 16281 16283 28
13027 16281 16284 28
13028 16281 16285 28
13029 16286 16287 28
13030 16286 16288 28
13031 16286 16289 28
13032 16286 16290 28
13033 16291 16292 28
13034 16291 16293 28
13035 16291 16294 28
13036 16291 16295 28
13037 16296 16297 28
13038 16296 16298 28
13039 16296 16299 28
13040 16296 16300 28
13041 16301 16302 28
13042 16301 16303 28
13043 16301 16304 28
13044 16301 16305 28
13045 16306 16307 28
13046 16306 16308 28
13047 16306 16309 28
13048 16306 16310 28
13049 16311 16312 28
13050 16311 16313 28
13051 16311 16314 28
13052 16311 16315 28
13053 16316 16317 28
13054 16316 16318 28
13055 16316 16319 28
13056 16316 16320 28
13057 16321 16322 28
13058 16321 16323 28
13059 16321 16324 28
13060 16321 16325 28
13061 16326 16327 28
13062 16326 16328 28
13063 16326 16329 28
13064 16326 16330 28
13065 16331 16332 28
13066 16331 16333 28
13067 16331 16334 28
13068 16331 16335 28
13069 16336 16337 28
13070 16336 16338 28
13071 16336 16339 28
13072 16336 16340 28
13073 16341 16342 28
13074 16341 16343 28
13075 16341 16344 28
13076 16341 16345 28
13077 16346 16347 28
13078 16346 16348 28
13079 16346 16349 28
13080 16346 16350 28
13081 16351 16352 28
13082 16351 16353 28
13083 16351 16354 28
13084 16351 16355 28
13085 16356 16357 28
13086 16356 16358 28
13087 16356 16359 28
13088 16356 16360 28
13089 16361 16362 28
13090 16361 16363 28
13091 16361 16364 28
13092 16361 16365 28
13093 16366 16367 28
13094 16366 16368 28
13095 16366 16369 28
13096 16366 16370 28
13097 16371 16372 28
13098 16371 16373 28
13099 16371 16374 28
13100 16371 16375 28
13101 16376 16377 28
13102 16376 16378 28
13103 16376 16379 28
13104 16376 16380 28
13105 16381 16382 28
13106 16381 16383 28
13107 16381 16384 28
13108 16381 16385 28
13109 16386 16387 28
13110 16386 16388 28
13111 16386 16389 28
13112 16386 16390 28
13113 16391 16392 28
13114 16391 16393 28
13115 16391 16394 28
13116 16391 16395 28
13117 16396 16397 28
13118 16396 16398 28
13119 16396 16399 28
13120 16396 16400 28
13121 16401 16402 28
13122 16401 16403 28
13123 16401 16404 28
13124 16401 16405 28
13125 16406 16407 28
13126 16406 16408 28
13127 16406 16409 28
13128 16406 16410 28
13129 16411 16412 28
13130 16411 16413 28
13131 16411 16414 28
13132 16411 16415 28
13133 16416 16417 28
13134 16416 16418 28
13135 16416 16419 28
13136 16416 16420 28
13137 16421 16422 28
13138 16421 16423 28
13139 16421 16424 28
13140 16421 16425 28
13141 16426 16427 28
13142 16426 16428 28
13143 16426 16429 28
13144 16426 16430 28
13145 16431 16432 28
13146 16431 16433 28
13147 16431 16434 28
13148 16431 16435 28
13149 16436 16437 28
13150 16436 16438 28
13151 16436 16439 28
13152 16436 16440 28
13153 16441 16442 28
13154 16441 16443 28
13155 16441 16444 28
13156 16441 16445 28
13157 16446 16447 28
13158 16446 16448 28
13159 16446 16449 28
13160 16446 16450 28
13161 16451 16452 28
13162 16451 16453 28
13163 16451 16454 28
13164 16451 16455 28
13165 16456 16457 28
13166 16456 16458 28
13167 16456 16459 28
13168 16456 16460 28
13169 16461 16462 28
13170 16461 16463 28
13171 16461 16464 28
13172 16461 16465 28
13173 16466 16467 28
13174 16466 16468 28
13175 16466 16469 28
13176 16466 16470 28
13177 16471 16472 28
13178 16471 16473 28
13179 16471 16474 28
13180 16471 16475 28
13181 16476 16477 28
13182 16476 16478 28
13183 16476 16479 28
13184 16476 16480 28
13185 16481 16482 28
13186 16481 16483 28
13187 16481 16484 28
13188 16481 16485 28
13189 16486 16487 28
13190 16486 16488 28
13191 16486 16489 28
13192 16486 16490 28
13193 16491 16492 28
13194 16491 16493 28
13195 16491 16494 28
13196 16491 16495 28
13197 16496 16497 28
13198 16496 16498 28
13199 16496 16499 28
13200 16496 16500 28
13201 16501 16502 28
13202 16501 16503 28
13203 16501 16504 28
13204 16501 16505 28
13205 16506 16507 28
13206 16506 16508 28
13207 16506 16509 28
13208 16506 16510 28
13209 16511 16512 28
13210 16511 16513 28
13211 16511 16514 28
13212 16511 16515 28
13213 16516 16517 28
13214 16516 16518 28
13215 16516 16519 28
13216 16516 16520 28
13217 16521 16522 28
13218 16521 16523 28
13219 16521 16524 28
13220 16521 16525 28
13221 16526 16527 28
13222 16526 16528 28
13223 16526 16529 28
13224 16526 16530 28
13225 16531 16532 28
13226 16531 16533 28
13227 16531 16534 28
13228 16531 16535 28
13229 16536 16537 28
13230 16536 16538 28
13231 16536 16539 28
13232 16536 16540 28
13233 16541 16542 28
13234 16541 16543 28
13235 16541 16544 28
13236 16541 16545 28
13237 16546 16547 28
13238 16546 16548 28
13239 16546 16549 28
13240 16546 16550 28
13241 16551 16552 28
13242 16551 16553 28
13243 16551 16554 28
13244 16551 16555 28
13245 16556 16557 28
13246 16556 16558 28
13247 16556 16559 28
13248 16556 16560 28
13249 16561 16562 28
13250 16561 16563 28
13251 16561 16564 28
13252 16561 16565 28
13253 16566 16567 28
13254 16566 16568 28
13255 16566 16569 28
13256 16566 16570 28
13257 16571 16572 28
13258 16571 16573 28
13259 16571 16574 28
13260 16571 16575 28
13261 16576 16577 28
13262 16576 16578 28
13263 16576 16579 28
13264 16576 16580 28
13265 16581 16582 28
13266 16581 16583 28
13267 16581 16584 28
13268 16581 16585 28
13269 16586 16587 28
13270 16586 16588 28
13271 16586 16589 28
13272 16586 16590 28
13273 16591 16592 28
13274 16591 16593 28
13275 16591 16594 28
13276 16591 16595 28
13277 16596 16597 28
13278 16596 16598 28
13279 16596 16599 28
13280 16596 16600 28
13281 16601 16602 28
13282 16601 16603 28
13283 16601 16604 28
13284 16601 16605 28
13285 16606 16607 28
13286 16606 16608 28
13287 16606 16609 28
13288 16606 16610 28
13289 16611 16612 28
13290 16611 16613 28
13291 16611 16614 28
13292 16611 16615 28
13293 16616 16617 28
13294 16616 16618 28
13295 16616 16619 28
13296 16616 16620 28
13297 16621 16622 28
13298 16621 16623 28
13299 16621 16624 28
13300 16621 16625 28
13301 16626 16627 28
13302 16626 16628 28
13303 16626 16629 28
13304 16626 16630 28
13305 16631 16632 28
13306 16631 16633 28
13307 16631 16634 28
13308 16631 16635 28
13309 16636 16637 28
13310 16636 16638 28
13311 16636 16639 28
13312 16636 16640 28
13313 16641 16642 28
13314 16641 16643 28
13315 16641 16644 28
13316 16641 16645 28
13317 16646 16647 28
13318 16646 16648 28
13319 16646 16649 28
13320 16646 16650 28
13321 16651 16652 28
13322 16651 16653 28
13323 16651 16654 28
13324 16651 16655 28
13325 16656 16657 28
13326 16656 16658 28
13327 16656 16659 28
13328 16656 16660 28
13329 16661 16662 28
13330 16661 16663 28
13331 16661 16664 28
13332 16661 16665 28
13333 16666 16667 28
13334 16666 16668 28
13335 16666 16669 28
13336 16666 16670 28
13337 16671 16672 28
13338 16671 16673 28
13339 16671 16674 28
13340 16671 16675 28
13341 16676 16677 28
13342 16676 16678 28
13343 16676 16679 28
13344 16676 16680 28
13345 16681 16682 28
13346 16681 16683 28
13347 16681 16684 28
13348 16681 16685 28
13349 16686 16687 28
13350 16686 16688 28
13351 16686 16689 28
13352 16686 16690 28
13353 16691 16692 28
13354 16691 16693 28
13355 16691 16694 28
13356 16691 16695 28
13357 16696 16697 28
13358 16696 16698 28
13359 16696 16699 28
13360 16696 16700 28
13361 16701 16702 28
13362 16701 16703 28
13363 16701 16704 28
13364 16701 16705 28
13365 16706 16707 28
13366 16706 16708 28
13367 16706 16709 28
13368 16706 16710 28
13369 16711 16712 28
13370 16711 16713 28
13371 16711 16714 28
13372 16711 16715 28
13373 16716 16717 28
13374 16716 16718 28
13375 16716 16719 28
13376 16716 16720 28
13377 16721 16722 28
13378 16721 16723 28
13379 16721 16724 28
13380 16721 16725 28
13381 16726 16727 28
13382 16726 16728 28
13383 16726 16729 28
13384 16726 16730 28
13385 16731 16732 28
13386 16731 16733 28
13387 16731 16734 28
13388 16731 16735 28
13389 16736 16737 28
13390 16736 16738 28
13391 16736 16739 28
13392 16736 16740 28
13393 16741 16742 28
13394 16741 16743 28
13395 16741 16744 28
13396 16741 16745 28
13397 16746 16747 28
13398 16746 16748 28
13399 16746 16749 28
13400 16746 16750 28
13401 16751 16752 28
13402 16751 16753 28
13403 16751 16754 28
13404 16751 16755 28
13405 16756 16757 28
13406 16756 16758 28
13407 16756 16759 28
13408 16756 16760 28
13409 16761 16762 28
13410 16761 16763 28
13411 16761 16764 28
13412 16761 16765 28
13413 16766 16767 28
13414 16766 16768 28
13415 16766 16769 28
13416 16766 16770 28
13417 16771 16772 28
13418 16771 16773 28
13419 16771 16774 28
13420 16771 16775 28
13421 16776 16777 28
13422 16776 16778 28
13423 16776 16779 28
13424 16776 16780 28
13425 16781 16782 28
13426 16781 16783 28
13427 16781 16784 28
13428 16781 16785 28
13429 16786 16787 28
13430 16786 16788 28
13431 16786 16789 28
13432 16786 16790 28
13433 16791 16792 28
13434 16791 16793 28
13435 16791 16794 28
13436 16791 16795 28
13437 16796 16797 28
13438 16796 16798 28
13439 16796 16799 28
13440 16796 16800 28
13441 16801 16802 28
13442 16801 16803 28
13443 16801 16804 28
13444 16801 16805 28
13445 16806 16807 28
13446 16806 16808 28
13447 16806 16809 28
13448 16806 16810 28
13449 16811 16812 28
13450 16811 16813 28
13451 16811 16814 28
13452 16811 16815 28
13453 16816 16817 28
13454 16816 16818 28
13455 16816 16819 28
13456 16816 16820 28
13457 16821 16822 28
13458 16821 16823 28
13459 16821 16824 28
13460 16821 16825 28
13461 16826 16827 28
13462 16826 16828 28
13463 16826 16829 28
13464 16826 16830 28
13465 16831 16832 28
13466 16831 16833 28
13467 16831 16834 28
13468 16831 16835 28
13469 16836 16837 28
13470 16836 16838 28
13471 16836 16839 28
13472 16836 16840 28
13473 16841 16842 28
13474 16841 16843 28
13475 16841 16844 28
13476 16841 16845 28
13477 16846 16847 28
13478 16846 16848 28
13479 16846 16849 28
13480 16846 16850 28
13481 16851 16852 28
13482 16851 16853 28
13483 16851 16854 28
13484 16851 16855 28
13485 16856 16857 28
13486 16856 16858 28
13487 16856 16859 28
13488 16856 16860 28
13489 16861 16862 28
13490 16861 16863 28
13491 16861 16864 28
13492 16861 16865 28
13493 16866 16867 28
13494 16866 16868 28
13495 16866 16869 28
13496 16866 16870 28
13497 16871 16872 28
13498 16871 16873 28
13499 16871 16874 28
13500 16871 16875 28
13501 16876 16877 28
13502 16876 16878 28
13503 16876 16879 28
13504 16876 16880 28
13505 16881 16882 28
13506 16881 16883 28
13507 16881 16884 28
13508 16881 16885 28
13509 16886 16887 28
13510 16886 16888 28
13511 16886 16889 28
13512 16886 16890 28
13513 16891 16892 28
13514 16891 16893 28
13515 16891 16894 28
13516 16891 16895 28
13517 16896 16897 28
13518 16896 16898 28
13519 16896 16899 28
13520 16896 16900 28
13521 16901 16902 28
13522 16901 16903 28
13523 16901 16904 28
13524 16901 16905 28
13525 16906 16907 28
13526 16906 16908 28
13527 16906 16909 28
13528 16906 16910 28
13529 16911 16912 28
13530 16911 16913 28
13531 16911 16914 28
13532 16911 16915 28
13533 16916 16917 28
13534 16916 16918 28
13535 16916 16919 28
13536 16916 16920 28
13537 16921 16922 28
13538 16921 16923 28
13539 16921 16924 28
13540 16921 16925 28
13541 16926 16927 28
13542 16926 16928 28
13543 16926 16929 28
13544 16926 16930 28
13545 16931 16932 28
13546 16931 16933 28
13547 16931 16934 28
13548 16931 16935 28
13549 16936 16937 28
13550 16936 16938 28
13551 16936 16939 28
13552 16936 16940 28
13553 16941 16942 28
13554 16941 16943 28
13555 16941 16944 28
13556 16941 16945 28
13557 16946 16947 28
13558 16946 16948 28
13559 16946 16949 28
13560 16946 16950 28
13561 16951 16952 28
13562 16951 16953 28
13563 16951 16954 28
13564 16951 16955 28
13565 16956 16957 28
13566 16956 16958 28
13567 16956 16959 28
13568 16956 16960 28
13569 16961 16962 28
13570 16961 16963 28
13571 16961 16964 28
13572 16961 16965 28
13573 16966 16967 28
13574 16966 16968 28
13575 16966 16969 28
13576 16966 16970 28
13577 16971 16972 28
13578 16971 16973 28
13579 16971 16974 28
13580 16971 16975 28
13581 16976 16977 28
13582 16976 16978 28
13583 16976 16979 28
13584 16976 16980 28
13585 16981 16982 28
13586 16981 16983 28
13587 16981 16984 28
13588 16981 16985 28
13589 16986 16987 28
13590 16986 16988 28
13591 16986 16989 28
13592 16986 16990 28
13593 16991 16992 28
13594 16991 16993 28
13595 16991 16994 28
13596 16991 16995 28
13597 16996 16997 28
13598 16996 16998 28
13599 16996 16999 28
13600 16996 17000 28
13601 17001 17002 28
13602 17001 17003 28
13603 17001 17004 28
13604 17001 17005 28
13605 17006 17007 28
13606 17006 17008 28
13607 17006 17009 28
13608 17006 17010 28
13609 17011 17012 28
13610 17011 17013 28
13611 17011 17014 28
13612 17011 17015 28
13613 17016 17017 28
13614 17016 17018 28
13615 17016 17019 28
13616 17016 17020 28
13617 17021 17022 28
13618 17021 17023 28
13619 17021 17024 28
13620 17021 17025 28
13621 17026 17027 28
13622 17026 17028 28
13623 17026 17029 28
13624 17026 17030 28
13625 17031 17032 28
13626 17031 17033 28
13627 17031 17034 28
13628 17031 17035 28
13629 17036 17037 28
13630 17036 17038 28
13631 17036 17039 28
13632 17036 17040 28
13633 17041 17042 28
13634 17041 17043 28
13635 17041 17044 28
13636 17041 17045 28
13637 17046 17047 28
13638 17046 17048 28
13639 17046 17049 28
13640 17046 17050 28
13641 17051 17052 28
13642 17051 17053 28
13643 17051 17054 28
13644 17051 17055 28
13645 17056 17057 28
13646 17056 17058 28
13647 17056 17059 28
13648 17056 17060 28
13649 17061 17062 28
13650 17061 17063 28
13651 17061 17064 28
13652 17061 17065 28
13653 17066 17067 28
13654 17066 17068 28
13655 17066 17069 28
13656 17066 17070 28
13657 17071 17072 28
13658 17071 17073 28
13659 17071 17074 28
13660 17071 17075 28
13661 17076 17077 28
13662 17076 17078 28
13663 17076 17079 28
13664 17076 17080 28
13665 17081 17082 28
13666 17081 17083 28
13667 17081 17084 28
13668 17081 17085 28
13669 17086 17087 28
13670 17086 17088 28
13671 17086 17089 28
13672 17086 17090 28
13673 17091 17092 28
13674 17091 17093 28
13675 17091 17094 28
13676 17091 17095 28
13677 17096 17097 28
13678 17096 17098 28
13679 17096 17099 28
13680 17096 17100 28
13681 17101 17102 28
13682 17101 17103 28
13683 17101 17104 28
13684 17101 17105 28
13685 17106 17107 28
13686 17106 17108 28
13687 17106 17109 28
13688 17106 17110 28
13689 17111 17112 28
13690 17111 17113 28
13691 17111 17114 28
13692 17111 17115 28
13693 17116 17117 28
13694 17116 17118 28
13695 17116 17119 28
13696 17116 17120 28
13697 17121 17122 28
13698 17121 17123 28
13699 17121 17124 28
13700 17121 17125 28
13701 17126 17127 28
13702 17126 17128 28
13703 17126 17129 28
13704 17126 17130 28
13705 17131 17132 28
13706 17131 17133 28
13707 17131 17134 28
13708 17131 17135 28
13709 17136 17137 28
13710 17136 17138 28
13711 17136 17139 28
13712 17136 17140 28
13713 17141 17142 28
13714 17141 17143 28
13715 17141 17144 28
13716 17141 17145 28
13717 17146 17147 28
13718 17146 17148 28
13719 17146 17149 28
13720 17146 17150 28
13721 17151 17152 28
13722 17151 17153 28
13723 17151 17154 28
13724 17151 17155 28
13725 17156 17157 28
13726 17156 17158 28
13727 17156 17159 28
13728 17156 17160 28
13729 17161 17162 28
13730 17161 17163 28
13731 17161 17164 28
13732 17161 17165 28
13733 17166 17167 28
13734 17166 17168 28
13735 17166 17169 28
13736 17166 17170 28
13737 17171 17172 28
13738 17171 17173 28
13739 17171 17174 28
13740 17171 17175 28
13741 17176 17177 28
13742 17176 17178 28
13743 17176 17179 28
13744 17176 17180 28
13745 17181 17182 28
13746 17181 17183 28
13747 17181 17184 28
13748 17181 17185 28
13749 17186 17187 28
13750 17186 17188 28
13751 17186 17189 28
13752 17186 17190 28
13753 17191 17192 28
13754 17191 17193 28
13755 17191 17194 28
13756 17191 17195 28
13757 17196 17197 28
13758 17196 17198 28
13759 17196 17199 28
13760 17196 17200 28
13761 17201 17202 28
13762 17201 17203 28
13763 17201 17204 28
13764 17201 17205 28
13765 17206 17207 28
13766 17206 17208 28
13767 17206 17209 28
13768 17206 17210 28
13769 17211 17212 28
13770 17211 17213 28
13771 17211 17214 28
13772 17211 17215 28
13773 17216 17217 28
13774 17216 17218 28
13775 17216 17219 28
13776 17216 17220 28
13777 17221 17222 28
13778 17221 17223 28
13779 17221 17224 28
13780 17221 17225 28
13781 17226 17227 28
13782 17226 17228 28
13783 17226 17229 28
13784 17226 17230 28
13785 17231 17232 28
13786 17231 17233 28
13787 17231 17234 28
13788 17231 17235 28
13789 17236 17237 28
13790 17236 17238 28
13791 17236 17239 28
13792 17236 17240 28
13793 17241 17242 28
13794 17241 17243 28
13795 17241 17244 28
13796 17241 17245 28
13797 17246 17247 28
13798 17246 17248 28
13799 17246 17249 28
13800 17246 17250 28
13801 17251 17252 28
13802 17251 17253 28
13803 17251 17254 28
13804 17251 17255 28
13805 17256 17257 28
13806 17256 17258 28
13807 17256 17259 28
13808 17256 17260 28
13809 17261 17262 28
13810 17261 17263 28
13811 17261 17264 28
13812 17261 17265 28
13813 17266 17267 28
13814 17266 17268 28
13815 17266 17269 28
13816 17266 17270 28
13817 17271 17272 28
13818 17271 17273 28
13819 17271 17274 28
13820 17271 17275 28
13821 17276 17277 28
13822 17276 17278 28
13823 17276 17279 28
13824 17276 17280 28
13825 17281 17282 28
13826 17281 17283 28
13827 17281 17284 28
13828 17281 17285 28
13829 17286 17287 28
13830 17286 17288 28
13831 17286 17289 28
13832 17286 17290 28
13833 17291 17292 28
13834 17291 17293 28
13835 17291 17294 28
13836 17291 17295 28
13837 17296 17297 28
13838 17296 17298 28
13839 17296 17299 28
13840 17296 17300 28
13841 17301 17302 28
13842 17301 17303 28
13843 17301 17304 28
13844 17301 17305 28
13845 17306 17307 28
13846 17306 17308 28
13847 17306 17309 28
13848 17306 17310 28
13849 17311 17312 28
13850 17311 17313 28
13851 17311 17314 28
13852 17311 17315 28
13853 17316 17317 28
13854 17316 17318 28
13855 17316 17319 28
13856 17316 17320 28
13857 17321 17322 28
13858 17321 17323 28
13859 17321 17324 28
13860 17321 17325 28
13861 17326 17327 28
13862 17326 17328 28
13863 17326 17329 28
13864 17326 17330 28
13865 17331 17332 28
13866 17331 17333 28
13867 17331 17334 28
13868 17331 17335 28
13869 17336 17337 28
13870 17336 17338 28
13871 17336 17339 28
13872 17336 17340 28
13873 17341 17342 28
13874 17341 17343 28
13875 17341 17344 28
13876 17341 17345 28
13877 17346 17347 28
13878 17346 17348 28
13879 17346 17349 28
13880 17346 17350 28
13881 17351 17352 28
13882 17351 17353 28
13883 17351 17354 28
13884 17351 17355 28
13885 17356 17357 28
13886 17356 17358 28
13887 17356 17359 28
13888 17356 17360 28
13889 17361 17362 28
13890 17361 17363 28
13891 17361 17364 28
13892 17361 17365 28
13893 17366 17367 28
13894 17366 17368 28
13895 17366 17369 28
13896 17366 17370 28
13897 17371 17372 28
13898 17371 17373 28
13899 17371 17374 28
13900 17371 17375 28
13901 17376 17377 28
13902 17376 17378 28
13903 17376 17379 28
13904 17376 17380 28
13905 17381 17382 28
13906 17381 17383 28
13907 17381 17384 28
13908 17381 17385 28
13909 17386 17387 28
13910 17386 17388 28
13911 17386 17389 28
13912 17386 17390 28
13913 17391 17392 28
13914 17391 17393 28
13915 17391 17394 28
13916 17391 17395 28
13917 17396 17397 28
13918 17396 17398 28
13919 17396 17399 28
13920 17396 17400 28
13921 17401 17402 28
13922 17401 17403 28
13923 17401 17404 28
13924 17401 17405 28
13925 17406 17407 28
13926 17406 17408 28
13927 17406 17409 28
13928 17406 17410 28
13929 17411 17412 28
13930 17411 17413 28
13931 17411 17414 28
13932 17411 17415 28
13933 17416 17417 28
13934 17416 17418 28
13935 17416 17419 28
13936 17416 17420 28
13937 17421 17422 28
13938 17421 17423 28
13939 17421 17424 28
13940 17421 17425 28
13941 17426 17427 28
13942 17426 17428 28
13943 17426 17429 28
13944 17426 17430 28
13945 17431 17432 28
13946 17431 17433 28
13947 17431 17434 28
13948 17431 17435 28
13949 17436 17437 28
13950 17436 17438 28
13951 17436 17439 28
13952 17436 17440 28
13953 17441 17442 28
13954 17441 17443 28
13955 17441 17444 28
13956 17441 17445 28
13957 17446 17447 28
13958 17446 17448 28
13959 17446 17449 28
13960 17446 17450 28
13961 17451 17452 28
13962 17451 17453 28
13963 17451 17454 28
13964 17451 17455 28
13965 17456 17457 28
13966 17456 17458 28
13967 17456 17459 28
13968 17456 17460 28
13969 17461 17462 28
13970 17461 17463 28
13971 17461 17464 28
13972 17461 17465 28
13973 17466 17467 28
13974 17466 17468 28
13975 17466 17469 28
13976 17466 17470 28
13977 17471 17472 28
13978 17471 17473 28
13979 17471 17474 28
13980 17471 17475 28
13981 17476 17477 28
13982 17476 17478 28
13983 17476 17479 28
13984 17476 17480 28
13985 17481 17482 28
13986 17481 17483 28
13987 17481 17484 28
13988 17481 17485 28
13989 17486 17487 28
13990 17486 17488 28
13991 17486 17489 28
13992 17486 17490 28
13993 17491 17492 28
13994 17491 17493 28
13995 17491 17494 28
13996 17491 17495 28
13997 17496 17497 28
13998 17496 17498 28
13999 17496 17499 28
14000 17496 17500 28
14001 17501 17502 28
14002 17501 17503 28
14003 17501 17504 28
14004 17501 17505 28
14005 17506 17507 28
14006 17506 17508 28
14007 17506 17509 28
14008 17506 17510 28
14009 17511 17512 28
14010 17511 17513 28
14011 17511 17514 28
14012 17511 17515 28
14013 17516 17517 28
14014 17516 17518 28
14015 17516 17519 28
14016 17516 17520 28
14017 17521 17522 28
14018 17521 17523 28
14019 17521 17524 28
14020 17521 17525 28
14021 17526 17527 28
14022 17526 17528 28
14023 17526 17529 28
14024 17526 17530 28
14025 17531 17532 28
14026 17531 17533 28
14027 17531 17534 28
14028 17531 17535 28
14029 17536 17537 28
14030 17536 17538 28
14031 17536 17539 28
14032 17536 17540 28
14033 17541 17542 28
14034 17541 17543 28
14035 17541 17544 28
14036 17541 17545 28
14037 17546 17547 28
14038 17546 17548 28
14039 17546 17549 28
14040 17546 17550 28
14041 17551 17552 28
14042 17551 17553 28
14043 17551 17554 28
14044 17551 17555 28
14045 17556 17557 28
14046 17556 17558 28
14047 17556 17559 28
14048 17556 17560 28
14049 17561 17562 28
14050 17561 17563 28
14051 17561 17564 28
14052 17561 17565 28
14053 17566 17567 28
14054 17566 17568 28
14055 17566 17569 28
14056 17566 17570 28
14057 17571 17572 28
14058 17571 17573 28
14059 17571 17574 28
14060 17571 17575 28
14061 17576 17577 28
14062 17576 17578 28
14063 17576 17579 28
14064 17576 17580 28
14065 17581 17582 28
14066 17581 17583 28
14067 17581 17584 28
14068 17581 17585 28
14069 17586 17587 28
14070 17586 17588 28
14071 17586 17589 28
14072 17586 17590 28
14073 17591 17592 28
14074 17591 17593 28
14075 17591 17594 28
14076 17591 17595 28
14077 17596 17597 28
14078 17596 17598 28
14079 17596 17599 28
14080 17596 17600 28
14081 17601 17602 28
14082 17601 17603 28
14083 17601 17604 28
14084 17601 17605 28
14085 17606 17607 28
14086 17606 17608 28
14087 17606 17609 28
14088 17606 17610 28
14089 17611 17612 28
14090 17611 17613 28
14091 17611 17614 28
14092 17611 17615 28
14093 17616 17617 28
14094 17616 17618 28
14095 17616 17619 28
14096 17616 17620 28
14097 17621 17622 28
14098 17621 17623 28
14099 17621 17624 28
14100 17621 17625 28
14101 17626 17627 28
14102 17626 17628 28
14103 17626 17629 28
14104 17626 17630 28
14105 17631 17632 28
14106 17631 17633 28
14107 17631 17634 28
14108 17631 17635 28
14109 17636 17637 28
14110 17636 17638 28
14111 17636 17639 28
14112 17636 17640 28
14113 17641 17642 28
14114 17641 17643 28
14115 17641 17644 28
14116 17641 17645 28
14117 17646 17647 28
14118 17646 17648 28
14119 17646 17649 28
14120 17646 17650 28
14121 17651 17652 28
14122 17651 17653 28
14123 17651 17654 28
14124 17651 17655 28
14125 17656 17657 28
14126 17656 17658 28
14127 17656 17659 28
14128 17656 17660 28
14129 17661 17662 28
14130 17661 17663 28
14131 17661 17664 28
14132 17661 17665 28
14133 17666 17667 28
14134 17666 17668 28
14135 17666 17669 28
14136 17666 17670 28
14137 17671 17672 28
14138 17671 17673 28
14139 17671 17674 28
14140 17671 17675 28
14141 17676 17677 28
14142 17676 17678 28
14143 17676 17679 28
14144 17676 17680 28
14145 17681 17682 28
14146 17681 17683 28
14147 17681 17684 28
14148 17681 17685 28
14149 17686 17687 28
14150 17686 17688 28
14151 17686 17689 28
14152 17686 17690 28
14153 17691 17692 28
14154 17691 17693 28
14155 17691 17694 28
14156 17691 17695 28
14157 17696 17697 28
14158 17696 17698 28
14159 17696 17699 28
14160 17696 17700 28
14161 17701 17702 28
14162 17701 17703 28
14163 17701 17704 28
14164 17701 17705 28
14165 17706 17707 28
14166 17706 17708 28
14167 17706 17709 28
14168 17706 17710 28
14169 17711 17712 28
14170 17711 17713 28
14171 17711 17714 28
14172 17711 17715 28
14173 17716 17717 28
14174 17716 17718 28
14175 17716 17719 28
14176 17716 17720 28
14177 17721 17722 28
14178 17721 17723 28
14179 17721 17724 28
14180 17721 17725 28
14181 17726 17727 28
14182 17726 17728 28
14183 17726 17729 28
14184 17726 17730 28
14185 17731 17732 28
14186 17731 17733 28
14187 17731 17734 28
14188 17731 17735 28
14189 17736 17737 28
14190 17736 17738 28
14191 17736 17739 28
14192 17736 17740 28
14193 17741 17742 28
14194 17741 17743 28
14195 17741 17744 28
14196 17741 17745 28
14197 17746 17747 28
14198 17746 17748 28
14199 17746 17749 28
14200 17746 17750 28
14201 17751 17752 28
14202 17751 17753 28
14203 17751 17754 28
14204 17751 17755 28
14205 17756 17757 28
14206 17756 17758 28
14207 17756 17759 28
14208 17756 17760 28
14209 17761 17762 28
14210 17761 17763 28
14211 17761 17764 28
14212 17761 17765 28
14213 17766 17767 28
14214 17766 17768 28
14215 17766 17769 28
14216 17766 17770 28
14217 17771 17772 28
14218 17771 17773 28
14219 17771 17774 28
14220 17771 17775 28
14221 17776 17777 28
14222 17776 17778 28
14223 17776 17779 28
14224 17776 17780 28
14225 17781 17782 28
14226 17781 17783 28
14227 17781 17784 28
14228 17781 17785 28
14229 17786 17787 28
14230 17786 17788 28
14231 17786 17789 28
14232 17786 17790 28
14233 17791 17792 28
14234 17791 17793 28
14235 17791 17794 28
14236 17791 17795 28
14237 17796 17797 28
14238 17796 17798 28
14239 17796 17799 28
14240 17796 17800 28
14241 17801 17802 28
14242 17801 17803 28
14243 17801 17804 28
14244 17801 17805 28
14245 17806 17807 28
14246 17806 17808 28
14247 17806 17809 28
14248 17806 17810 28
14249 17811 17812 28
14250 17811 17813 28
14251 17811 17814 28
14252 17811 17815 28
14253 17816 17817 28
14254 17816 17818 28
14255 17816 17819 28
14256 17816 17820 28
14257 17821 17822 28
14258 17821 17823 28
14259 17821 17824 28
14260 17821 17825 28
14261 17826 17827 28
14262 17826 17828 28
14263 17826 17829 28
14264 17826 17830 28
14265 17831 17832 28
14266 17831 17833 28
14267 17831 17834 28
14268 17831 17835 28
14269 17836 17837 28
14270 17836 17838 28
14271 17836 17839 28
14272 17836 17840 28
14273 17841 17842 28
14274 17841 17843 28
14275 17841 17844 28
14276 17841 17845 28
14277 17846 17847 28
14278 17846 17848 28
14279 17846 17849 28
14280 17846 17850 28
14281 17851 17852 28
14282 17851 17853 28
14283 17851 17854 28
14284 17851 17855 28
14285 17856 17857 28
14286 17856 17858 28
14287 17856 17859 28
14288 17856 17860 28
14289 17861 17862 28
14290 17861 17863 28
14291 17861 17864 28
14292 17861 17865 28
14293 17866 17867 28
14294 17866 17868 28
14295 17866 17869 28
14296 17866 17870 28
14297 17871 17872 28
14298 17871 17873 28
14299 17871 17874 28
14300 17871 17875 28
14301 17876 17877 28
14302 17876 17878 28
14303 17876 17879 28
14304 17876 17880 28
14305 17881 17882 28
14306 17881 17883 28
14307 17881 17884 28
14308 17881 17885 28
14309 17886 17887 28
14310 17886 17888 28
14311 17886 17889 28
14312 17886 17890 28
14313 17891 17892 28
14314 17891 17893 28
14315 17891 17894 28
14316 17891 17895 28
14317 17896 17897 28
14318 17896 17898 28
14319 17896 17899 28
14320 17896 17900 28
14321 17901 17902 28
14322 17901 17903 28
14323 17901 17904 28
14324 17901 17905 28
14325 17906 17907 28
14326 17906 17908 28
14327 17906 17909 28
14328 17906 17910 28
14329 17911 17912 28
14330 17911 17913 28
14331 17911 17914 28
14332 17911 17915 28
14333 17916 17917 28
14334 17916 17918 28
14335 17916 17919 28
14336 17916 17920 28
14337 17921 17922 28
14338 17921 17923 28
14339 17921 17924 28
14340 17921 17925 28
14341 17926 17927 28
14342 17926 17928 28
14343 17926 17929 28
14344 17926 17930 28
14345 17931 17932 28
14346 17931 17933 28
14347 17931 17934 28
14348 17931 17935 28
14349 17936 17937 28
14350 17936 17938 28
14351 17936 17939 28
14352 17936 17940 28
14353 17941 17942 28
14354 17941 17943 28
14355 17941 17944 28
14356 17941 17945 28
14357 17946 17947 28
14358 17946 17948 28
14359 17946 17949 28
14360 17946 17950 28
14361 17951 17952 28
14362 17951 17953 28
14363 17951 17954 28
14364 17951 17955 28
14365 17956 17957 28
14366 17956 17958 28
14367 17956 17959 28
14368 17956 17960 28
14369 17961 17962 28
14370 17961 17963 28
14371 17961 17964 28
14372 17961 17965 28
14373 17966 17967 28
14374 17966 17968 28
14375 17966 17969 28
14376 17966 17970 28
14377 17971 17972 28
14378 17971 17973 28
14379 17971 17974 28
14380 17971 17975 28
14381 17976 17977 28
14382 17976 17978 28
14383 17976 17979 28
14384 17976 17980 28
14385 17981 17982 28
14386 17981 17983 28
14387 17981 17984 28
14388 17981 17985 28
14389 17986 17987 28
14390 17986 17988 28
14391 17986 17989 28
14392 17986 17990 28
14393 17991 17992 28
14394 17991 17993 28
14395 17991 17994 28
14396 17991 17995 28
14397 17996 17997 28
14398 17996 17998 28
14399 17996 17999 28
14400 17996 18000 28
14401 18001 18002 28
14402 18001 18003 28
14403 18001 18004 28
14404 18001 18005 28
14405 18006 18007 28
14406 18006 18008 28
14407 18006 18009 28
14408 18006 18010 28
14409 18011 18012 28
14410 18011 18013 28
14411 18011 18014 28
14412 18011 18015 28
14413 18016 18017 28
14414 18016 18018 28
14415 18016 18019 28
14416 18016 18020 28
14417 18021 18022 28
14418 18021 18023 28
14419 18021 18024 28
14420 18021 18025 28
14421 18026 18027 28
14422 18026 18028 28
14423 18026 18029 28
14424 18026 18030 28
14425 18031 18032 28
14426 18031 18033 28
14427 18031 18034 28
14428 18031 18035 28
14429 18036 18037 28
14430 18036 18038 28
14431 18036 18039 28
14432 18036 18040 28
14433 18041 18042 28
14434 18041 18043 28
14435 18041 18044 28
14436 18041 18045 28
14437 18046 18047 28
14438 18046 18048 28
14439 18046 18049 28
14440 18046 18050 28
14441 18051 18052 28
14442 18051 18053 28
14443 18051 18054 28
14444 18051 18055 28
14445 18056 18057 28
14446 18056 18058 28
14447 18056 18059 28
14448 18056 18060 28
14449 18061 18062 28
14450 18061 18063 28
14451 18061 18064 28
14452 18061 18065 28
14453 18066 18067 28
14454 18066 18068 28
14455 18066 18069 28
14456 18066 18070 28
14457 18071 18072 28
14458 18071 18073 28
14459 18071 18074 28
14460 18071 18075 28
14461 18076 18077 28
14462 18076 18078 28
14463 18076 18079 28
14464 18076 18080 28
14465 18081 18082 28
14466 18081 18083 28
14467 18081 18084 28
14468 18081 18085 28
14469 18086 18087 28
14470 18086 18088 28
14471 18086 18089 28
14472 18086 18090 28
14473 18091 18092 28
14474 18091 18093 28
14475 18091 18094 28
14476 18091 18095 28
14477 18096 18097 28
14478 18096 18098 28
14479 18096 18099 28
14480 18096 18100 28
14481 18101 18102 28
14482 18101 18103 28
14483 18101 18104 28
14484 18101 18105 28
14485 18106 18107 28
14486 18106 18108 28
14487 18106 18109 28
14488 18106 18110 28
14489 18111 18112 28
14490 18111 18113 28
14491 18111 18114 28
14492 18111 18115 28
14493 18116 18117 28
14494 18116 18118 28
14495 18116 18119 28
14496 18116 18120 28
14497 18121 18122 28
14498 18121 18123 28
14499 18121 18124 28
14500 18121 18125 28
14501 18126 18127 28
14502 18126 18128 28
14503 18126 18129 28
14504 18126 18130 28
14505 18131 18132 28
14506 18131 18133 28
14507 18131 18134 28
14508 18131 18135 28
14509 18136 18137 28
14510 18136 18138 28
14511 18136 18139 28
14512 18136 18140 28
14513 18141 18142 28
14514 18141 18143 28
14515 18141 18144 28
14516 18141 18145 28
14517 18146 18147 28
14518 18146 18148 28
14519 18146 18149 28
14520 18146 18150 28
14521 18151 18152 28
14522 18151 18153 28
14523 18151 18154 28
14524 18151 18155 28
14525 18156 18157 28
14526 18156 18158 28
14527 18156 18159 28
14528 18156 18160 28
14529 18161 18162 28
14530 18161 18163 28
14531 18161 18164 28
14532 18161 18165 28
14533 18166 18167 28
14534 18166 18168 28
14535 18166 18169 28
14536 18166 18170 28
14537 18171 18172 28
14538 18171 18173 28
14539 18171 18174 28
14540 18171 18175 28
14541 18176 18177 28
14542 18176 18178 28
14543 18176 18179 28
14544 18176 18180 28
14545 18181 18182 28
14546 18181 18183 28
14547 18181 18184 28
14548 18181 18185 28
14549 18186 18187 28
14550 18186 18188 28
14551 18186 18189 28
14552 18186 18190 28
14553 18191 18192 28
14554 18191 18193 28
14555 18191 18194 28
14556 18191 18195 28
14557 18196 18197 28
14558 18196 18198 28
14559 18196 18199 28
14560 18196 18200 28
14561 18201 18202 28
14562 18201 18203 28
14563 18201 18204 28
14564 18201 18205 28
14565 18206 18207 28
14566 18206 18208 28
14567 18206 18209 28
14568 18206 18210 28
14569 18211 18212 28
14570 18211 18213 28
14571 18211 18214 28
14572 18211 18215 28
14573 18216 18217 28
14574 18216 18218 28
14575 18216 18219 28
14576 18216 18220 28
14577 18221 18222 28
14578 18221 18223 28
14579 18221 18224 28
14580 18221 18225 28
14581 18226 18227 28
14582 18226 18228 28
14583 18226 18229 28
14584 18226 18230 28
14585 18231 18232 28
14586 18231 18233 28
14587 18231 18234 28
14588 18231 18235 28
14589 18236 18237 28
14590 18236 18238 28
14591 18236 18239 28
14592 18236 18240 28
14593 18241 18242 28
14594 18241 18243 28
14595 18241 18244 28
14596 18241 18245 28
14597 18246 18247 28
14598 18246 18248 28
14599 18246 18249 28
14600 18246 18250 28
14601 18251 18252 28
14602 18251 18253 28
14603 18251 18254 28
14604 18251 18255 28
14605 18256 18257 28
14606 18256 18258 28
14607 18256 18259 28
14608 18256 18260 28
14609 18261 18262 28
14610 18261 18263 28
14611 18261 18264 28
14612 18261 18265 28
14613 18266 18267 28
14614 18266 18268 28
14615 18266 18269 28
14616 18266 18270 28
14617 18271 18272 28
14618 18271 18273 28
14619 18271 18274 28
14620 18271 18275 28
14621 18276 18277 28
14622 18276 18278 28
14623 18276 18279 28
14624 18276 18280 28
14625 18281 18282 28
14626 18281 18283 28
14627 18281 18284 28
14628 18281 18285 28
14629 18286 18287 28
14630 18286 18288 28
14631 18286 18289 28
14632 18286 18290 28
14633 18291 18292 28
14634 18291 18293 28
14635 18291 18294 28
14636 18291 18295 28
14637 18296 18297 28
14638 18296 18298 28
14639 18296 18299 28
14640 18296 18300 28
14641 18301 18302 28
14642 18301 18303 28
14643 18301 18304 28
14644 18301 18305 28
14645 18306 18307 28
14646 18306 18308 28
14647 18306 18309 28
14648 18306 18310 28
14649 18311 18312 28
14650 18311 18313 28
14651 18311 18314 28
14652 18311 18315 28
14653 18316 18317 28
14654 18316 18318 28
14655 18316 18319 28
14656 18316 18320 28
14657 18321 18322 28
14658 18321 18323 28
14659 18321 18324 28
14660 18321 18325 28
14661 18326 18327 28
14662 18326 18328 28
14663 18326 18329 28
14664 18326 18330 28
14665 18331 18332 28
14666 18331 18333 28
14667 18331 18334 28
14668 18331 18335 28
14669 18336 18337 28
14670 18336 18338 28
14671 18336 18339 28
14672 18336 18340 28
14673 18341 18342 28
14674 18341 18343 28
14675 18341 18344 28
14676 18341 18345 28
14677 18346 18347 28
14678 18346 18348 28
14679 18346 18349 28
14680 18346 18350 28
14681 18351 18352 28
14682 18351 18353 28
14683 18351 18354 28
14684 18351 18355 28
14685 18356 18357 28
14686 18356 18358 28
14687 18356 18359 28
14688 18356 18360 28
14689 18361 18362 28
14690 18361 18363 28
14691 18361 18364 28
14692 18361 18365 28
14693 18366 18367 28
14694 18366 18368 28
14695 18366 18369 28
14696 18366 18370 28
14697 18371 18372 28
14698 18371 18373 28
14699 18371 18374 28
14700 18371 18375 28
14701 18376 18377 28
14702 18376 18378 28
14703 18376 18379 28
14704 18376 18380 28
14705 18381 18382 28
14706 18381 18383 28
14707 18381 18384 28
14708 18381 18385 28
14709 18386 18387 28
14710 18386 18388 28
14711 18386 18389 28
14712 18386 18390 28
14713 18391 18392 28
14714 18391 18393 28
14715 18391 18394 28
14716 18391 18395 28
14717 18396 18397 28
14718 18396 18398 28
14719 18396 18399 28
14720 18396 18400 28
14721 18401 18402 28
14722 18401 18403 28
14723 18401 18404 28
14724 18401 18405 28
14725 18406 18407 28
14726 18406 18408 28
14727 18406 18409 28
14728 18406 18410 28
14729 18411 18412 28
14730 18411 18413 28
14731 18411 18414 28
14732 18411 18415 28
14733 18416 18417 28
14734 18416 18418 28
14735 18416 18419 28
14736 18416 18420 28
14737 18421 18422 28
14738 18421 18423 28
14739 18421 18424 28
14740 18421 18425 28
14741 18426 18427 28
14742 18426 18428 28
14743 18426 18429 28
14744 18426 18430 28
14745 18431 18432 28
14746 18431 18433 28
14747 18431 18434 28
14748 18431 18435 28
14749 18436 18437 28
14750 18436 18438 28
14751 18436 18439 28
14752 18436 18440 28
14753 18441 18442 28
14754 18441 18443 28
14755 18441 18444 28
14756 18441 18445 28
14757 18446 18447 28
14758 18446 18448 28
14759 18446 18449 28
14760 18446 18450 28
14761 18451 18452 28
14762 18451 18453 28
14763 18451 18454 28
14764 18451 18455 28
14765 18456 18457 28
14766 18456 18458 28
14767 18456 18459 28
14768 18456 18460 28
14769 18461 18462 28
14770 18461 18463 28
14771 18461 18464 28
14772 18461 18465 28
14773 18466 18467 28
14774 18466 18468 28
14775 18466 18469 28
14776 18466 18470 28
14777 18471 18472 28
14778 18471 18473 28
14779 18471 18474 28
14780 18471 18475 28
14781 18476 18477 28
14782 18476 18478 28
14783 18476 18479 28
14784 18476 18480 28
14785 18481 18482 28
14786 18481 18483 28
14787 18481 18484 28
14788 18481 18485 28
14789 18486 18487 28
14790 18486 18488 28
14791 18486 18489 28
14792 18486 18490 28
14793 18491 18492 28
14794 18491 18493 28
14795 18491 18494 28
14796 18491 18495 28
14797 18496 18497 28
14798 18496 18498 28
14799 18496 18499 28
14800 18496 18500 28
14801 18501 18502 28
14802 18501 18503 28
14803 18501 18504 28
14804 18501 18505 28
14805 18506 18507 28
14806 18506 18508 28
14807 18506 18509 28
14808 18506 18510 28
14809 18511 18512 28
14810 18511 18513 28
14811 18511 18514 28
14812 18511 18515 28
14813 18516 18517 28
14814 18516 18518 28
14815 18516 18519 28
14816 18516 18520 28
14817 18521 18522 28
14818 18521 18523 28
14819 18521 18524 28
14820 18521 18525 28
14821 18526 18527 28
14822 18526 18528 28
14823 18526 18529 28
14824 18526 18530 28
14825 18531 18532 28
14826 18531 18533 28
14827 18531 18534 28
14828 18531 18535 28
14829 18536 18537 28
14830 18536 18538 28
14831 18536 18539 28
14832 18536 18540 28
14833 18541 18542 28
14834 18541 18543 28
14835 18541 18544 28
14836 18541 18545 28
14837 18546 18547 28
14838 18546 18548 28
14839 18546 18549 28
14840 18546 18550 28
14841 18551 18552 28
14842 18551 18553 28
14843 18551 18554 28
14844 18551 18555 28
14845 18556 18557 28
14846 18556 18558 28
14847 18556 18559 28
14848 18556 18560 28
14849 18561 18562 28
14850 18561 18563 28
14851 18561 18564 28
14852 18561 18565 28
14853 18566 18567 28
14854 18566 18568 28
14855 18566 18569 28
14856 18566 18570 28
14857 18571 18572 28
14858 18571 18573 28
14859 18571 18574 28
14860 18571 18575 28
14861 18576 18577 28
14862 18576 18578 28
14863 18576 18579 28
14864 18576 18580 28
14865 18581 18582 28
14866 18581 18583 28
14867 18581 18584 28
14868 18581 18585 28
14869 18586 18587 28
14870 18586 18588 28
14871 18586 18589 28
14872 18586 18590 28
14873 18591 18592 28
14874 18591 18593 28
14875 18591 18594 28
14876 18591 18595 28
14877 18596 18597 28
14878 18596 18598 28
14879 18596 18599 28
14880 18596 18600 28
14881 18601 18602 28
14882 18601 18603 28
14883 18601 18604 28
14884 18601 18605 28
14885 18606 18607 28
14886 18606 18608 28
14887 18606 18609 28
14888 18606 18610 28
14889 18611 18612 28
14890 18611 18613 28
14891 18611 18614 28
14892 18611 18615 28
14893 18616 18617 28
14894 18616 18618 28
14895 18616 18619 28
14896 18616 18620 28
14897 18621 18622 28
14898 18621 18623 28
14899 18621 18624 28
14900 18621 18625 28
14901 18626 18627 28
14902 18626 18628 28
14903 18626 18629 28
14904 18626 18630 28
14905 18631 18632 28
14906 18631 18633 28
14907 18631 18634 28
14908 18631 18635 28
14909 18636 18637 28
14910 18636 18638 28
14911 18636 18639 28
14912 18636 18640 28
14913 18641 18642 28
14914 18641 18643 28
14915 18641 18644 28
14916 18641 18645 28
14917 18646 18647 28
14918 18646 18648 28
14919 18646 18649 28
14920 18646 18650 28
14921 18651 18652 28
14922 18651 18653 28
14923 18651 18654 28
14924 18651 18655 28
14925 18656 18657 28
14926 18656 18658 28
14927 18656 18659 28
14928 18656 18660 28
14929 18661 18662 28
14930 18661 18663 28
14931 18661 18664 28
14932 18661 18665 28
14933 18666 18667 28
14934 18666 18668 28
14935 18666 18669 28
14936 18666 18670 28
14937 18671 18672 28
14938 18671 18673 28
14939 18671 18674 28
14940 18671 18675 28
14941 18676 18677 28
14942 18676 18678 28
14943 18676 18679 28
14944 18676 18680 28
14945 18681 18682 28
14946 18681 18683 28
14947 18681 18684 28
14948 18681 18685 28
14949 18686 18687 28
14950 18686 18688 28
14951 18686 18689 28
14952 18686 18690 28
14953 18691 18692 28
14954 18691 18693 28
14955 18691 18694 28
14956 18691 18695 28
14957 18696 18697 28
14958 18696 18698 28
14959 18696 18699 28
14960 18696 18700 28
14961 18701 18702 28
14962 18701 18703 28
14963 18701 18704 28
14964 18701 18705 28
14965 18706 18707 28
14966 18706 18708 28
14967 18706 18709 28
14968 18706 18710 28
14969 18711 18712 28
14970 18711 18713 28
14971 18711 18714 28
14972 18711 18715 28
14973 18716 18717 28
14974 18716 18718 28
14975 18716 18719 28
14976 18716 18720 28
14977 18721 18722 28
14978 18721 18723 28
14979 18721 18724 28
14980 18721 18725 28
14981 18726 18727 28
14982 18726 18728 28
14983 18726 18729 28
14984 18726 18730 28
14985 18731 18732 28
14986 18731 18733 28
14987 18731 18734 28
14988 18731 18735 28
14989 18736 18737 28
14990 18736 18738 28
14991 18736 18739 28
14992 18736 18740 28
14993 18741 18742 28
14994 18741 18743 28
14995 18741 18744 28
14996 18741 18745 28
14997 18746 18747 28
14998 18746 18748 28
14999 18746 18749 28
15000 18746 18750 28
15001 18751 18752 28
15002 18751 18753 28
15003 18751 18754 28
15004 18751 18755 28
15005 18756 18757 28
15006 18756 18758 28
15007 18756 18759 28
15008 18756 18760 28
15009 18761 18762 28
15010 18761 18763 28
15011 18761 18764 28
15012 18761 18765 28
15013 18766 18767 28
15014 18766 18768 28
15015 18766 18769 28
15016 18766 18770 28
15017 18771 18772 28
15018 18771 18773 28
15019 18771 18774 28
15020 18771 18775 28
15021 18776 18777 28
15022 18776 18778 28
15023 18776 18779 28
15024 18776 18780 28
15025 18781 18782 28
15026 18781 18783 28
15027 18781 18784 28
15028 18781 18785 28
15029 18786 18787 28
15030 18786 18788 28
15031 18786 18789 28
15032 18786 18790 28
15033 18791 18792 28
15034 18791 18793 28
15035 18791 18794 28
15036 18791 18795 28
15037 18796 18797 28
15038 18796 18798 28
15039 18796 18799 28
15040 18796 18800 28
15041 18801 18802 28
15042 18801 18803 28
15043 18801 18804 28
15044 18801 18805 28
15045 18806 18807 28
15046 18806 18808 28
15047 18806 18809 28
15048 18806 18810 28
15049 18811 18812 28
15050 18811 18813 28
15051 18811 18814 28
15052 18811 18815 28
15053 18816 18817 28
15054 18816 18818 28
15055 18816 18819 28
15056 18816 18820 28
15057 18821 18822 28
15058 18821 18823 28
15059 18821 18824 28
15060 18821 18825 28
15061 18826 18827 28
15062 18826 18828 28
15063 18826 18829 28
15064 18826 18830 28
15065 18831 18832 28
15066 18831 18833 28
15067 18831 18834 28
15068 18831 18835 28
15069 18836 18837 28
15070 18836 18838 28
15071 18836 18839 28
15072 18836 18840 28
15073 18841 18842 28
15074 18841 18843 28
15075 18841 18844 28
15076 18841 18845 28
15077 18846 18847 28
15078 18846 18848 28
15079 18846 18849 28
15080 18846 18850 28
15081 18851 18852 28
15082 18851 18853 28
15083 18851 18854 28
15084 18851 18855 28
15085 18856 18857 28
15086 18856 18858 28
15087 18856 18859 28
15088 18856 18860 28
15089 18861 18862 28
15090 18861 18863 28
15091 18861 18864 28
15092 18861 18865 28
15093 18866 18867 28
15094 18866 18868 28
15095 18866 18869 28
15096 18866 18870 28
15097 18871 18872 28
15098 18871 18873 28
15099 18871 18874 28
15100 18871 18875 28
15101 18876 18877 28
15102 18876 18878 28
15103 18876 18879 28
15104 18876 18880 28
15105 18881 18882 28
15106 18881 18883 28
15107 18881 18884 28
15108 18881 18885 28
15109 18886 18887 28
15110 18886 18888 28
15111 18886 18889 28
15112 18886 18890 28
15113 18891 18892 28
15114 18891 18893 28
15115 18891 18894 28
15116 18891 18895 28
15117 18896 18897 28
15118 18896 18898 28
15119 18896 18899 28
15120 18896 18900 28
15121 18901 18902 28
15122 18901 18903 28
15123 18901 18904 28
15124 18901 18905 28
15125 18906 18907 28
15126 18906 18908 28
15127 18906 18909 28
15128 18906 18910 28
15129 18911 18912 28
15130 18911 18913 28
15131 18911 18914 28
15132 18911 18915 28
15133 18916 18917 28
15134 18916 18918 28
15135 18916 18919 28
15136 18916 18920 28
15137 18921 18922 28
15138 18921 18923 28
15139 18921 18924 28
15140 18921 18925 28
15141 18926 18927 28
15142 18926 18928 28
15143 18926 18929 28
15144 18926 18930 28
15145 18931 18932 28
15146 18931 18933 28
15147 18931 18934 28
15148 18931 18935 28
15149 18936 18937 28
15150 18936 18938 28
15151 18936 18939 28
15152 18936 18940 28
15153 18941 18942 28
15154 18941 18943 28
15155 18941 18944 28
15156 18941 18945 28
15157 18946 18947 28
15158 18946 18948 28
15159 18946 18949 28
15160 18946 18950 28
15161 18951 18952 28
15162 18951 18953 28
15163 18951 18954 28
15164 18951 18955 28
15165 18956 18957 28
15166 18956 18958 28
15167 18956 18959 28
15168 18956 18960 28
15169 18961 18962 28
15170 18961 18963 28
15171 18961 18964 28
15172 18961 18965 28
15173 18966 18967 28
15174 18966 18968 28
15175 18966 18969 28
15176 18966 18970 28
15177 18971 18972 28
15178 18971 18973 28
15179 18971 18974 28
15180 18971 18975 28
15181 18976 18977 28
15182 18976 18978 28
15183 18976 18979 28
15184 18976 18980 28
15185 18981 18982 28
15186 18981 18983 28
15187 18981 18984 28
15188 18981 18985 28
15189 18986 18987 28
15190 18986 18988 28
15191 18986 18989 28
15192 18986 18990 28
15193 18991 18992 28
15194 18991 18993 28
15195 18991 18994 28
15196 18991 18995 28
15197 18996 18997 28
15198 18996 18998 28
15199 18996 18999 28
15200 18996 19000 28
15201 19001 19002 28
15202 19001 19003 28
15203 19001 19004 28
15204 19001 19005 28
15205 19006 19007 28
15206 19006 19008 28
15207 19006 19009 28
15208 19006 19010 28
15209 19011 19012 28
15210 19011 19013 28
15211 19011 19014 28
15212 19011 19015 28
15213 19016 19017 28
15214 19016 19018 28
15215 19016 19019 28
15216 19016 19020 28
15217 19021 19022 28
15218 19021 19023 28
15219 19021 19024 28
15220 19021 19025 28
15221 19026 19027 28
15222 19026 19028 28
15223 19026 19029 28
15224 19026 19030 28
15225 19031 19032 28
15226 19031 19033 28
15227 19031 19034 28
15228 19031 19035 28
15229 19036 19037 28
15230 19036 19038 28
15231 19036 19039 28
15232 19036 19040 28
15233 19041 19042 28
15234 19041 19043 28
15235 19041 19044 28
15236 19041 19045 28
15237 19046 19047 28
15238 19046 19048 28
15239 19046 19049 28
15240 19046 19050 28
15241 19051 19052 28
15242 19051 19053 28
15243 19051 19054 28
15244 19051 19055 28
15245 19056 19057 28
15246 19056 19058 28
15247 19056 19059 28
15248 19056 19060 28
15249 19061 19062 28
15250 19061 19063 28
15251 19061 19064 28
15252 19061 19065 28
15253 19066 19067 28
15254 19066 19068 28
15255 19066 19069 28
15256 19066 19070 28
15257 19071 19072 28
15258 19071 19073 28
15259 19071 19074 28
15260 19071 19075 28
15261 19076 19077 28
15262 19076 19078 28
15263 19076 19079 28
15264 19076 19080 28
15265 19081 19082 28
15266 19081 19083 28
15267 19081 19084 28
15268 19081 19085 28
15269 19086 19087 28
15270 19086 19088 28
15271 19086 19089 28
15272 19086 19090 28
15273 19091 19092 28
15274 19091 19093 28
15275 19091 19094 28
15276 19091 19095 28
15277 19096 19097 28
15278 19096 19098 28
15279 19096 19099 28
15280 19096 19100 28
15281 19101 19102 28
15282 19101 19103 28
15283 19101 19104 28
15284 19101 19105 28
15285 19106 19107 28
15286 19106 19108 28
15287 19106 19109 28
15288 19106 19110 28
15289 19111 19112 28
15290 19111 19113 28
15291 19111 19114 28
15292 19111 19115 28
15293 19116 19117 28
15294 19116 19118 28
15295 19116 19119 28
15296 19116 19120 28
15297 19121 19122 28
15298 19121 19123 28
15299 19121 19124 28
15300 19121 19125 28
15301 19126 19127 28
15302 19126 19128 28
15303 19126 19129 28
15304 19126 19130 28
15305 19131 19132 28
15306 19131 19133 28
15307 19131 19134 28
15308 19131 19135 28
15309 19136 19137 28
15310 19136 19138 28
15311 19136 19139 28
15312 19136 19140 28
15313 19141 19142 28
15314 19141 19143 28
15315 19141 19144 28
15316 19141 19145 28
15317 19146 19147 28
15318 19146 19148 28
15319 19146 19149 28
15320 19146 19150 28
15321 19151 19152 28
15322 19151 19153 28
15323 19151 19154 28
15324 19151 19155 28
15325 19156 19157 28
15326 19156 19158 28
15327 19156 19159 28
15328 19156 19160 28
15329 19161 19162 28
15330 19161 19163 28
15331 19161 19164 28
15332 19161 19165 28
15333 19166 19167 28
15334 19166 19168 28
15335 19166 19169 28
15336 19166 19170 28
15337 19171 19172 28
15338 19171 19173 28
15339 19171 19174 28
15340 19171 19175 28
15341 19176 19177 28
15342 19176 19178 28
15343 19176 19179 28
15344 19176 19180 28
15345 19181 19182 28
15346 19181 19183 28
15347 19181 19184 28
15348 19181 19185 28
15349 19186 19187 28
15350 19186 19188 28
15351 19186 19189 28
15352 19186 19190 28
15353 19191 19192 28
15354 19191 19193 28
15355 19191 19194 28
15356 19191 19195 28
15357 19196 19197 28
15358 19196 19198 28
15359 19196 19199 28
15360 19196 19200 28
15361 19201 19202 28
15362 19201 19203 28
15363 19201 19204 28
15364 19201 19205 28
15365 19206 19207 28
15366 19206 19208 28
15367 19206 19209 28
15368 19206 19210 28
15369 19211 19212 28
15370 19211 19213 28
15371 19211 19214 28
15372 19211 19215 28
15373 19216 19217 28
15374 19216 19218 28
15375 19216 19219 28
15376 19216 19220 28
15377 19221 19222 28
15378 19221 19223 28
15379 19221 19224 28
15380 19221 19225 28
15381 19226 19227 28
15382 19226 19228 28
15383 19226 19229 28
15384 19226 19230 28
15385 19231 19232 28
15386 19231 19233 28
15387 19231 19234 28
15388 19231 19235 28
15389 19236 19237 28
15390 19236 19238 28
15391 19236 19239 28
15392 19236 19240 28
15393 19241 19242 28
15394 19241 19243 28
15395 19241 19244 28
15396 19241 19245 28
15397 19246 19247 28
15398 19246 19248 28
15399 19246 19249 28
15400 19246 19250 28
15401 19251 19252 28
15402 19251 19253 28
15403 19251 19254 28
15404 19251 19255 28
15405 19256 19257 28
15406 19256 19258 28
15407 19256 19259 28
15408 19256 19260 28
15409 19261 19262 28
15410 19261 19263 28
15411 19261 19264 28
15412 19261 19265 28
15413 19266 19267 28
15414 19266 19268 28
15415 19266 19269 28
15416 19266 19270 28
15417 19271 19272 28
15418 19271 19273 28
15419 19271 19274 28
15420 19271 19275 28
15421 19276 19277 28
15422 19276 19278 28
15423 19276 19279 28
15424 19276 19280 28
15425 19281 19282 28
15426 19281 19283 28
15427 19281 19284 28
15428 19281 19285 28
15429 19286 19287 28
15430 19286 19288 28
15431 19286 19289 28
15432 19286 19290 28
15433 19291 19292 28
15434 19291 19293 28
15435 19291 19294 28
15436 19291 19295 28
15437 19296 19297 28
15438 19296 19298 28
15439 19296 19299 28
15440 19296 19300 28
15441 19301 19302 28
15442 19301 19303 28
15443 19301 19304 28
15444 19301 19305 28
15445 19306 19307 28
15446 19306 19308 28
15447 19306 19309 28
15448 19306 19310 28
15449 19311 19312 28
15450 19311 19313 28
15451 19311 19314 28
15452 19311 19315 28
15453 19316 19317 28
15454 19316 19318 28
15455 19316 19319 28
15456 19316 19320 28
15457 19321 19322 28
15458 19321 19323 28
15459 19321 19324 28
15460 19321 19325 28
15461 19326 19327 28
15462 19326 19328 28
15463 19326 19329 28
15464 19326 19330 28
15465 19331 19332 28
15466 19331 19333 28
15467 19331 19334 28
15468 19331 19335 28
15469 19336 19337 28
15470 19336 19338 28
15471 19336 19339 28
15472 19336 19340 28
15473 19341 19342 28
15474 19341 19343 28
15475 19341 19344 28
15476 19341 19345 28
15477 19346 19347 28
15478 19346 19348 28
15479 19346 19349 28
15480 19346 19350 28
15481 19351 19352 28
15482 19351 19353 28
15483 19351 19354 28
15484 19351 19355 28
15485 19356 19357 28
15486 19356 19358 28
15487 19356 19359 28
15488 19356 19360 28
15489 19361 19362 28
15490 19361 19363 28
15491 19361 19364 28
15492 19361 19365 28
15493 19366 19367 28
15494 19366 19368 28
15495 19366 19369 28
15496 19366 19370 28
15497 19371 19372 28
15498 19371 19373 28
15499 19371 19374 28
15500 19371 19375 28
15501 19376 19377 28
15502 19376 19378 28
15503 19376 19379 28
15504 19376 19380 28
15505 19381 19382 28
15506 19381 19383 28
15507 19381 19384 28
15508 19381 19385 28
15509 19386 19387 28
15510 19386 19388 28
15511 19386 19389 28
15512 19386 19390 28
15513 19391 19392 28
15514 19391 19393 28
15515 19391 19394 28
15516 19391 19395 28
15517 19396 19397 28
15518 19396 19398 28
15519 19396 19399 28
15520 19396 19400 28
15521 19401 19402 28
15522 19401 19403 28
15523 19401 19404 28
15524 19401 19405 28
15525 19406 19407 28
15526 19406 19408 28
15527 19406 19409 28
15528 19406 19410 28
15529 19411 19412 28
15530 19411 19413 28
15531 19411 19414 28
15532 19411 19415 28
15533 19416 19417 28
15534 19416 19418 28
15535 19416 19419 28
15536 19416 19420 28
15537 19421 19422 28
15538 19421 19423 28
15539 19421 19424 28
15540 19421 19425 28
15541 19426 19427 28
15542 19426 19428 28
15543 19426 19429 28
15544 19426 19430 28
15545 19431 19432 28
15546 19431 19433 28
15547 19431 19434 28
15548 19431 19435 28
15549 19436 19437 28
15550 19436 19438 28
15551 19436 19439 28
15552 19436 19440 28
15553 19441 19442 28
15554 19441 19443 28
15555 19441 19444 28
15556 19441 19445 28
15557 19446 19447 28
15558 19446 19448 28
15559 19446 19449 28
15560 19446 19450 28
15561 19451 19452 28
15562 19451 19453 28
15563 19451 19454 28
15564 19451 19455 28
15565 19456 19457 28
15566 19456 19458 28
15567 19456 19459 28
15568 19456 19460 28
15569 19461 19462 28
15570 19461 19463 28
15571 19461 19464 28
15572 19461 19465 28
15573 19466 19467 28
15574 19466 19468 28
15575 19466 19469 28
15576 19466 19470 28
15577 19471 19472 28
15578 19471 19473 28
15579 19471 19474 28
15580 19471 19475 28
15581 19476 19477 28
15582 19476 19478 28
15583 19476 19479 28
15584 19476 19480 28
15585 19481 19482 28
15586 19481 19483 28
15587 19481 19484 28
15588 19481 19485 28
15589 19486 19487 28
15590 19486 19488 28
15591 19486 19489 28
15592 19486 19490 28
15593 19491 19492 28
15594 19491 19493 28
15595 19491 19494 28
15596 19491 19495 28
15597 19496 19497 28
15598 19496 19498 28
15599 19496 19499 28
15600 19496 19500 28
15601 19501 19502 28
15602 19501 19503 28
15603 19501 19504 28
15604 19501 19505 28
15605 19506 19507 28
15606 19506 19508 28
15607 19506 19509 28
15608 19506 19510 28
15609 19511 19512 28
15610 19511 19513 28
15611 19511 19514 28
15612 19511 19515 28
15613 19516 19517 28
15614 19516 19518 28
15615 19516 19519 28
15616 19516 19520 28
15617 19521 19522 28
15618 19521 19523 28
15619 19521 19524 28
15620 19521 19525 28
15621 19526 19527 28
15622 19526 19528 28
15623 19526 19529 28
15624 19526 19530 28
15625 19531 19532 28
15626 19531 19533 28
15627 19531 19534 28
15628 19531 19535 28
15629 19536 19537 28
15630 19536 19538 28
15631 19536 19539 28
15632 19536 19540 28
15633 19541 19542 28
15634 19541 19543 28
15635 19541 19544 28
15636 19541 19545 28
15637 19546 19547 28
15638 19546 19548 28
15639 19546 19549 28
15640 19546 19550 28
15641 19551 19552 28
15642 19551 19553 28
15643 19551 19554 28
15644 19551 19555 28
15645 19556 19557 28
15646 19556 19558 28
15647 19556 19559 28
15648 19556 19560 28
15649 19561 19562 28
15650 19561 19563 28
15651 19561 19564 28
15652 19561 19565 28
15653 19566 19567 28
15654 19566 19568 28
15655 19566 19569 28
15656 19566 19570 28
15657 19571 19572 28
15658 19571 19573 28
15659 19571 19574 28
15660 19571 19575 28
15661 19576 19577 28
15662 19576 19578 28
15663 19576 19579 28
15664 19576 19580 28
15665 19581 19582 28
15666 19581 19583 28
15667 19581 19584 28
15668 19581 19585 28
15669 19586 19587 28
15670 19586 19588 28
15671 19586 19589 28
15672 19586 19590 28
15673 19591 19592 28
15674 19591 19593 28
15675 19591 19594 28
15676 19591 19595 28
15677 19596 19597 28
15678 19596 19598 28
15679 19596 19599 28
15680 19596 19600 28
15681 19601 19602 28
15682 19601 19603 28
15683 19601 19604 28
15684 19601 19605 28
15685 19606 19607 28
15686 19606 19608 28
15687 19606 19609 28
15688 19606 19610 28
15689 19611 19612 28
15690 19611 19613 28
15691 19611 19614 28
15692 19611 19615 28
15693 19616 19617 28
15694 19616 19618 28
15695 19616 19619 28
15696 19616 19620 28
15697 19621 19622 28
15698 19621 19623 28
15699 19621 19624 28
15700 19621 19625 28
15701 19626 19627 28
15702 19626 19628 28
15703 19626 19629 28
15704 19626 19630 28
15705 19631 19632 28
15706 19631 19633 28
15707 19631 19634 28
15708 19631 19635 28
15709 19636 19637 28
15710 19636 19638 28
15711 19636 19639 28
15712 19636 19640 28
15713 19641 19642 28
15714 19641 19643 28
15715 19641 19644 28
15716 19641 19645 28
15717 19646 19647 28
15718 19646 19648 28
15719 19646 19649 28
15720 19646 19650 28
15721 19651 19652 28
15722 19651 19653 28
15723 19651 19654 28
15724 19651 19655 28
15725 19656 19657 28
15726 19656 19658 28
15727 19656 19659 28
15728 19656 19660 28
15729 19661 19662 28
15730 19661 19663 28
15731 19661 19664 28
15732 19661 19665 28
15733 19666 19667 28
15734 19666 19668 28
15735 19666 19669 28
15736 19666 19670 28
15737 19671 19672 28
15738 19671 19673 28
15739 19671 19674 28
15740 19671 19675 28
15741 19676 19677 28
15742 19676 19678 28
15743 19676 19679 28
15744 19676 19680 28
15745 19681 19682 28
15746 19681 19683 28
15747 19681 19684 28
15748 19681 19685 28
15749 19686 19687 28
15750 19686 19688 28
15751 19686 19689 28
15752 19686 19690 28
15753 19691 19692 28
15754 19691 19693 28
15755 19691 19694 28
15756 19691 19695 28
15757 19696 19697 28
15758 19696 19698 28
15759 19696 19699 28
15760 19696 19700 28
15761 19701 19702 28
15762 19701 19703 28
15763 19701 19704 28
15764 19701 19705 28
15765 19706 19707 28
15766 19706 19708 28
15767 19706 19709 28
15768 19706 19710 28
15769 19711 19712 28
15770 19711 19713 28
15771 19711 19714 28
15772 19711 19715 28
15773 19716 19717 28
15774 19716 19718 28
15775 19716 19719 28
15776 19716 19720 28
15777 19721 19722 28
15778 19721 19723 28
15779 19721 19724 28
15780 19721 19725 28
15781 19726 19727 28
15782 19726 19728 28
15783 19726 19729 28
15784 19726 19730 28
15785 19731 19732 28
15786 19731 19733 28
15787 19731 19734 28
15788 19731 19735 28
15789 19736 19737 28
15790 19736 19738 28
15791 19736 19739 28
15792 19736 19740 28
15793 19741 19742 28
15794 19741 19743 28
15795 19741 19744 28
15796 19741 19745 28
15797 19746 19747 28
15798 19746 19748 28
15799 19746 19749 28
15800 19746 19750 28
15801 19751 19752 28
15802 19751 19753 28
15803 19751 19754 28
15804 19751 19755 28
15805 19756 19757 28
15806 19756 19758 28
15807 19756 19759 28
15808 19756 19760 28
15809 19761 19762 28
15810 19761 19763 28
15811 19761 19764 28
15812 19761 19765 28
15813 19766 19767 28
15814 19766 19768 28
15815 19766 19769 28
15816 19766 19770 28
15817 19771 19772 28
15818 19771 19773 28
15819 19771 19774 28
15820 19771 19775 28
15821 19776 19777 28
15822 19776 19778 28
15823 19776 19779 28
15824 19776 19780 28
15825 19781 19782 28
15826 19781 19783 28
15827 19781 19784 28
15828 19781 19785 28
15829 19786 19787 28
15830 19786 19788 28
15831 19786 19789 28
15832 19786 19790 28
15833 19791 19792 28
15834 19791 19793 28
15835 19791 19794 28
15836 19791 19795 28
15837 19796 19797 28
15838 19796 19798 28
15839 19796 19799 28
15840 19796 19800 28
15841 19801 19802 28
15842 19801 19803 28
15843 19801 19804 28
15844 19801 19805 28
15845 19806 19807 28
15846 19806 19808 28
15847 19806 19809 28
15848 19806 19810 28
15849 19811 19812 28
15850 19811 19813 28
15851 19811 19814 28
15852 19811 19815 28
15853 19816 19817 28
15854 19816 19818 28
15855 19816 19819 28
15856 19816 19820 28
15857 19821 19822 28
15858 19821 19823 28
15859 19821 19824 28
15860 19821 19825 28
15861 19826 19827 28
15862 19826 19828 28
15863 19826 19829 28
15864 19826 19830 28
15865 19831 19832 28
15866 19831 19833 28
15867 19831 19834 28
15868 19831 19835 28
15869 19836 19837 28
15870 19836 19838 28
15871 19836 19839 28
15872 19836 19840 28
15873 19841 19842 28
15874 19841 19843 28
15875 19841 19844 28
15876 19841 19845 28
15877 19846 19847 28
15878 19846 19848 28
15879 19846 19849 28
15880 19846 19850 28
15881 19851 19852 28
15882 19851 19853 28
15883 19851 19854 28
15884 19851 19855 28
15885 19856 19857 28
15886 19856 19858 28
15887 19856 19859 28
15888 19856 19860 28
15889 19861 19862 28
15890 19861 19863 28
15891 19861 19864 28
15892 19861 19865 28
15893 19866 19867 28
15894 19866 19868 28
15895 19866 19869 28
15896 19866 19870 28
15897 19871 19872 28
15898 19871 19873 28
15899 19871 19874 28
15900 19871 19875 28
15901 19876 19877 28
15902 19876 19878 28
15903 19876 19879 28
15904 19876 19880 28
15905 19881 19882 28
15906 19881 19883 28
15907 19881 19884 28
15908 19881 19885 28
15909 19886 19887 28
15910 19886 19888 28
15911 19886 19889 28
15912 19886 19890 28
15913 19891 19892 28
15914 19891 19893 28
15915 19891 19894 28
15916 19891 19895 28
15917 19896 19897 28
15918 19896 19898 28
15919 19896 19899 28
15920 19896 19900 28
15921 19901 19902 28
15922 19901 19903 28
15923 19901 19904 28
15924 19901 19905 28
15925 19906 19907 28
15926 19906 19908 28
15927 19906 19909 28
15928 19906 19910 28
15929 19911 19912 28
15930 19911 19913 28
15931 19911 19914 28
15932 19911 19915 28
15933 19916 19917 28
15934 19916 19918 28
15935 19916 19919 28
15936 19916 19920 28
15937 19921 19922 28
15938 19921 19923 28
15939 19921 19924 28
15940 19921 19925 28
15941 19926 19927 28
15942 19926 19928 28
15943 19926 19929 28
15944 19926 19930 28
15945 19931 19932 28
15946 19931 19933 28
15947 19931 19934 28
15948 19931 19935 28
15949 19936 19937 28
15950 19936 19938 28
15951 19936 19939 28
15952 19936 19940 28
15953 19941 19942 28
15954 19941 19943 28
15955 19941 19944 28
15956 19941 19945 28
15957 19946 19947 28
15958 19946 19948 28
15959 19946 19949 28
15960 19946 19950 28
15961 19951 19952 28
15962 19951 19953 28
15963 19951 19954 28
15964 19951 19955 28
15965 19956 19957 28
15966 19956 19958 28
15967 19956 19959 28
15968 19956 19960 28
15969 19961 19962 28
15970 19961 19963 28
15971 19961 19964 28
15972 19961 19965 28
15973 19966 19967 28
15974 19966 19968 28
15975 19966 19969 28
15976 19966 19970 28
15977 19971 19972 28
15978 19971 19973 28
15979 19971 19974 28
15980 19971 19975 28
15981 19976 19977 28
15982 19976 19978 28
15983 19976 19979 28
15984 19976 19980 28
15985 19981 19982 28
15986 19981 19983 28
15987 19981 19984 28
15988 19981 19985 28
15989 19986 19987 28
15990 19986 19988 28
15991 19986 19989 28
15992 19986 19990 28
15993 19991 19992 28
15994 19991 19993 28
15995 19991 19994 28
15996 19991 19995 28
15997 19996 19997 28
15998 19996 19998 28
15999 19996 19999 28
16000 19996 20000 28
16001 20001 20002 28
16002 20001 20003 28
16003 20001 20004 28
16004 20001 20005 28
16005 20006 20007 28
16006 20006 20008 28
16007 20006 20009 28
16008 20006 20010 28
16009 20011 20012 28
16010 20011 20013 28
16011 20011 20014 28
16012 20011 20015 28
16013 20016 20017 28
16014 20016 20018 28
16015 20016 20019 28
16016 20016 20020 28
16017 20021 20022 28
16018 20021 20023 28
16019 20021 20024 28
16020 20021 20025 28
16021 20026 20027 28
16022 20026 20028 28
16023 20026 20029 28
16024 20026 20030 28
16025 20031 20032 28
16026 20031 20033 28
16027 20031 20034 28
16028 20031 20035 28
16029 20036 20037 28
16030 20036 20038 28
16031 20036 20039 28
16032 20036 20040 28
16033 20041 20042 28
16034 20041 20043 28
16035 20041 20044 28
16036 20041 20045 28
16037 20046 20047 28
16038 20046 20048 28
16039 20046 20049 28
16040 20046 20050 28
16041 20051 20052 28
16042 20051 20053 28
16043 20051 20054 28
16044 20051 20055 28
16045 20056 20057 28
16046 20056 20058 28
16047 20056 20059 28
16048 20056 20060 28
16049 20061 20062 28
16050 20061 20063 28
16051 20061 20064 28
16052 20061 20065 28
16053 20066 20067 28
16054 20066 20068 28
16055 20066 20069 28
16056 20066 20070 28
16057 20071 20072 28
16058 20071 20073 28
16059 20071 20074 28
16060 20071 20075 28
16061 20076 20077 28
16062 20076 20078 28
16063 20076 20079 28
16064 20076 20080 28
16065 20081 20082 28
16066 20081 20083 28
16067 20081 20084 28
16068 20081 20085 28
16069 20086 20087 28
16070 20086 20088 28
16071 20086 20089 28
16072 20086 20090 28
16073 20091 20092 28
16074 20091 20093 28
16075 20091 20094 28
16076 20091 20095 28
16077 20096 20097 28
16078 20096 20098 28
16079 20096 20099 28
16080 20096 20100 28
16081 20101 20102 28
16082 20101 20103 28
16083 20101 20104 28
16084 20101 20105 28
16085 20106 20107 28
16086 20106 20108 28
16087 20106 20109 28
16088 20106 20110 28
16089 20111 20112 28
16090 20111 20113 28
16091 20111 20114 28
16092 20111 20115 28
16093 20116 20117 28
16094 20116 20118 28
16095 20116 20119 28
16096 20116 20120 28
16097 20121 20122 28
16098 20121 20123 28
16099 20121 20124 28
16100 20121 20125 28
16101 20126 20127 28
16102 20126 20128 28
16103 20126 20129 28
16104 20126 20130 28
16105 20131 20132 28
16106 20131 20133 28
16107 20131 20134 28
16108 20131 20135 28
16109 20136 20137 28
16110 20136 20138 28
16111 20136 20139 28
16112 20136 20140 28
16113 20141 20142 28
16114 20141 20143 28
16115 20141 20144 28
16116 20141 20145 28
16117 20146 20147 28
16118 20146 20148 28
16119 20146 20149 28
16120 20146 20150 28
16121 20151 20152 28
16122 20151 20153 28
16123 20151 20154 28
16124 20151 20155 28
16125 20156 20157 28
16126 20156 20158 28
16127 20156 20159 28
16128 20156 20160 28
16129 20161 20162 28
16130 20161 20163 28
16131 20161 20164 28
16132 20161 20165 28
16133 20166 20167 28
16134 20166 20168 28
16135 20166 20169 28
16136 20166 20170 28
16137 20171 20172 28
16138 20171 20173 28
16139 20171 20174 28
16140 20171 20175 28
16141 20176 20177 28
16142 20176 20178 28
16143 20176 20179 28
16144 20176 20180 28
16145 20181 20182 28
16146 20181 20183 28
16147 20181 20184 28
16148 20181 20185 28
16149 20186 20187 28
16150 20186 20188 28
16151 20186 20189 28
16152 20186 20190 28
16153 20191 20192 28
16154 20191 20193 28
16155 20191 20194 28
16156 20191 20195 28
16157 20196 20197 28
16158 20196 20198 28
16159 20196 20199 28
16160 20196 20200 28
16161 20201 20202 28
16162 20201 20203 28
16163 20201 20204 28
16164 20201 20205 28
16165 20206 20207 28
16166 20206 20208 28
16167 20206 20209 28
16168 20206 20210 28
16169 20211 20212 28
16170 20211 20213 28
16171 20211 20214 28
16172 20211 20215 28
16173 20216 20217 28
16174 20216 20218 28
16175 20216 20219 28
16176 20216 20220 28
16177 20221 20222 28
16178 20221 20223 28
16179 20221 20224 28
16180 20221 20225 28
16181 20226 20227 28
16182 20226 20228 28
16183 20226 20229 28
16184 20226 20230 28
16185 20231 20232 28
16186 20231 20233 28
16187 20231 20234 28
16188 20231 20235 28
16189 20236 20237 28
16190 20236 20238 28
16191 20236 20239 28
16192 20236 20240 28
16193 20241 20242 28
16194 20241 20243 28
16195 20241 20244 28
16196 20241 20245 28
16197 20246 20247 28
16198 20246 20248 28
16199 20246 20249 28
16200 20246 20250 28
16201 20251 20252 28
16202 20251 20253 28
16203 20251 20254 28
16204 20251 20255 28
16205 20256 20257 28
16206 20256 20258 28
16207 20256 20259 28
16208 20256 20260 28
16209 20261 20262 28
16210 20261 20263 28
16211 20261 20264 28
16212 20261 20265 28
16213 20266 20267 28
16214 20266 20268 28
16215 20266 20269 28
16216 20266 20270 28
16217 20271 20272 28
16218 20271 20273 28
16219 20271 20274 28
16220 20271 20275 28
16221 20276 20277 28
16222 20276 20278 28
16223 20276 20279 28
16224 20276 20280 28
16225 20281 20282 28
16226 20281 20283 28
16227 20281 20284 28
16228 20281 20285 28
16229 20286 20287 28
16230 20286 20288 28
16231 20286 20289 28
16232 20286 20290 28
16233 20291 20292 28
16234 20291 20293 28
16235 20291 20294 28
16236 20291 20295 28
16237 20296 20297 28
16238 20296 20298 28
16239 20296 20299 28
16240 20296 20300 28
16241 20301 20302 28
16242 20301 20303 28
16243 20301 20304 28
16244 20301 20305 28
16245 20306 20307 28
16246 20306 20308 28
16247 20306 20309 28
16248 20306 20310 28
16249 20311 20312 28
16250 20311 20313 28
16251 20311 20314 28
16252 20311 20315 28
16253 20316 20317 28
16254 20316 20318 28
16255 20316 20319 28
16256 20316 20320 28
16257 20321 20322 28
16258 20321 20323 28
16259 20321 20324 28
16260 20321 20325 28
16261 20326 20327 28
16262 20326 20328 28
16263 20326 20329 28
16264 20326 20330 28
16265 20331 20332 28
16266 20331 20333 28
16267 20331 20334 28
16268 20331 20335 28
16269 20336 20337 28
16270 20336 20338 28
16271 20336 20339 28
16272 20336 20340 28
16273 20341 20342 28
16274 20341 20343 28
16275 20341 20344 28
16276 20341 20345 28
16277 20346 20347 28
16278 20346 20348 28
16279 20346 20349 28
16280 20346 20350 28
16281 20351 20352 28
16282 20351 20353 28
16283 20351 20354 28
16284 20351 20355 28
16285 20356 20357 28
16286 20356 20358 28
16287 20356 20359 28
16288 20356 20360 28
16289 20361 20362 28
16290 20361 20363 28
16291 20361 20364 28
16292 20361 20365 28
16293 20366 20367 28
16294 20366 20368 28
16295 20366 20369 28
16296 20366 20370 28
16297 20371 20372 28
16298 20371 20373 28
16299 20371 20374 28
16300 20371 20375 28
16301 20376 20377 28
16302 20376 20378 28
16303 20376 20379 28
16304 20376 20380 28
16305 20381 20382 28
16306 20381 20383 28
16307 20381 20384 28
16308 20381 20385 28
16309 20386 20387 28
16310 20386 20388 28
16311 20386 20389 28
16312 20386 20390 28
16313 20391 20392 28
16314 20391 20393 28
16315 20391 20394 28
16316 20391 20395 28
16317 20396 20397 28
16318 20396 20398 28
16319 20396 20399 28
16320 20396 20400 28
16321 20401 20402 28
16322 20401 20403 28
16323 20401 20404 28
16324 20401 20405 28
16325 20406 20407 28
16326 20406 20408 28
16327 20406 20409 28
16328 20406 20410 28
16329 20411 20412 28
16330 20411 20413 28
16331 20411 20414 28
16332 20411 20415 28
16333 20416 20417 28
16334 20416 20418 28
16335 20416 20419 28
16336 20416 20420 28
16337 20421 20422 28
16338 20421 20423 28
16339 20421 20424 28
16340 20421 20425 28
16341 20426 20427 28
16342 20426 20428 28
16343 20426 20429 28
16344 20426 20430 28
16345 20431 20432 28
16346 20431 20433 28
16347 20431 20434 28
16348 20431 20435 28
16349 20436 20437 28
16350 20436 20438 28
16351 20436 20439 28
16352 20436 20440 28
16353 20441 20442 28
16354 20441 20443 28
16355 20441 20444 28
16356 20441 20445 28
16357 20446 20447 28
16358 20446 20448 28
16359 20446 20449 28
16360 20446 20450 28
16361 20451 20452 28
16362 20451 20453 28
16363 20451 20454 28
16364 20451 20455 28
16365 20456 20457 28
16366 20456 20458 28
16367 20456 20459 28
16368 20456 20460 28
16369 20461 20462 28
16370 20461 20463 28
16371 20461 20464 28
16372 20461 20465 28
16373 20466 20467 28
16374 20466 20468 28
16375 20466 20469 28
16376 20466 20470 28
16377 20471 20472 28
16378 20471 20473 28
16379 20471 20474 28
16380 20471 20475 28
16381 20476 20477 28
16382 20476 20478 28
16383 20476 20479 28
16384 20476 20480 28
16385 20481 20482 28
16386 20481 20483 28
16387 20481 20484 28
16388 20481 20485 28
16389 20486 20487 28
16390 20486 20488 28
16391 20486 20489 28
16392 20486 20490 28
16393 20491 20492 28
16394 20491 20493 28
16395 20491 20494 28
16396 20491 20495 28
16397 20496 20497 28
16398 20496 20498 28
16399 20496 20499 28
16400 20496 20500 28
16401 20501 20502 28
16402 20501 20503 28
16403 20501 20504 28
16404 20501 20505 28
16405 20506 20507 28
16406 20506 20508 28
16407 20506 20509 28
16408 20506 20510 28
16409 20511 20512 28
16410 20511 20513 28
16411 20511 20514 28
16412 20511 20515 28
16413 20516 20517 28
16414 20516 20518 28
16415 20516 20519 28
16416 20516 20520 28
16417 20521 20522 28
16418 20521 20523 28
16419 20521 20524 28
16420 20521 20525 28
16421 20526 20527 28
16422 20526 20528 28
16423 20526 20529 28
16424 20526 20530 28
16425 20531 20532 28
16426 20531 20533 28
16427 20531 20534 28
16428 20531 20535 28
16429 20536 20537 28
16430 20536 20538 28
16431 20536 20539 28
16432 20536 20540 28
16433 20541 20542 28
16434 20541 20543 28
16435 20541 20544 28
16436 20541 20545 28
16437 20546 20547 28
16438 20546 20548 28
16439 20546 20549 28
16440 20546 20550 28
16441 20551 20552 28
16442 20551 20553 28
16443 20551 20554 28
16444 20551 20555 28
16445 20556 20557 28
16446 20556 20558 28
16447 20556 20559 28
16448 20556 20560 28
16449 20561 20562 28
16450 20561 20563 28
16451 20561 20564 28
16452 20561 20565 28
16453 20566 20567 28
16454 20566 20568 28
16455 20566 20569 28
16456 20566 20570 28
16457 20571 20572 28
16458 20571 20573 28
16459 20571 20574 28
16460 20571 20575 28
16461 20576 20577 28
16462 20576 20578 28
16463 20576 20579 28
16464 20576 20580 28
16465 20581 20582 28
16466 20581 20583 28
16467 20581 20584 28
16468 20581 20585 28
16469 20586 20587 28
16470 20586 20588 28
16471 20586 20589 28
16472 20586 20590 28
16473 20591 20592 28
16474 20591 20593 28
16475 20591 20594 28
16476 20591 20595 28
16477 20596 20597 28
16478 20596 20598 28
16479 20596 20599 28
16480 20596 20600 28
16481 20601 20602 28
16482 20601 20603 28
16483 20601 20604 28
16484 20601 20605 28
16485 20606 20607 28
16486 20606 20608 28
16487 20606 20609 28
16488 20606 20610 28
16489 20611 20612 28
16490 20611 20613 28
16491 20611 20614 28
16492 20611 20615 28
16493 20616 20617 28
16494 20616 20618 28
16495 20616 20619 28
16496 20616 20620 28
16497 20621 20622 28
16498 20621 20623 28
16499 20621 20624 28
16500 20621 20625 28
16501 20626 20627 28
16502 20626 20628 28
16503 20626 20629 28
16504 20626 20630 28
16505 20631 20632 28
16506 20631 20633 28
16507 20631 20634 28
16508 20631 20635 28
16509 20636 20637 28
16510 20636 20638 28
16511 20636 20639 28
16512 20636 20640 28
16513 20641 20642 28
16514 20641 20643 28
16515 20641 20644 28
16516 20641 20645 28
16517 20646 20647 28
16518 20646 20648 28
16519 20646 20649 28
16520 20646 20650 28
16521 20651 20652 28
16522 20651 20653 28
16523 20651 20654 28
16524 20651 20655 28
16525 20656 20657 28
16526 20656 20658 28
16527 20656 20659 28
16528 20656 20660 28
16529 20661 20662 28
16530 20661 20663 28
16531 20661 20664 28
16532 20661 20665 28
16533 20666 20667 28
16534 20666 20668 28
16535 20666 20669 28
16536 20666 20670 28
16537 20671 20672 28
16538 20671 20673 28
16539 20671 20674 28
16540 20671 20675 28
16541 20676 20677 28
16542 20676 20678 28
16543 20676 20679 28
16544 20676 20680 28
16545 20681 20682 28
16546 20681 20683 28
16547 20681 20684 28
16548 20681 20685 28
16549 20686 20687 28
16550 20686 20688 28
16551 20686 20689 28
16552 20686 20690 28
16553 20691 20692 28
16554 20691 20693 28
16555 20691 20694 28
16556 20691 20695 28
16557 20696 20697 28
16558 20696 20698 28
16559 20696 20699 28
16560 20696 20700 28
16561 20701 20702 28
16562 20701 20703 28
16563 20701 20704 28
16564 20701 20705 28
16565 20706 20707 28
16566 20706 20708 28
16567 20706 20709 28
16568 20706 20710 28
16569 20711 20712 28
16570 20711 20713 28
16571 20711 20714 28
16572 20711 20715 28
16573 20716 20717 28
16574 20716 20718 28
16575 20716 20719 28
16576 20716 20720 28
16577 20721 20722 28
16578 20721 20723 28
16579 20721 20724 28
16580 20721 20725 28
16581 20726 20727 28
16582 20726 20728 28
16583 20726 20729 28
16584 20726 20730 28
16585 20731 20732 28
16586 20731 20733 28
16587 20731 20734 28
16588 20731 20735 28
16589 20736 20737 28
16590 20736 20738 28
16591 20736 20739 28
16592 20736 20740 28
16593 20741 20742 28
16594 20741 20743 28
16595 20741 20744 28
16596 20741 20745 28
16597 20746 20747 28
16598 20746 20748 28
16599 20746 20749 28
16600 20746 20750 28
16601 20751 20752 28
16602 20751 20753 28
16603 20751 20754 28
16604 20751 20755 28
16605 20756 20757 28
16606 20756 20758 28
16607 20756 20759 28
16608 20756 20760 28
16609 20761 20762 28
16610 20761 20763 28
16611 20761 20764 28
16612 20761 20765 28
16613 20766 20767 28
16614 20766 20768 28
16615 20766 20769 28
16616 20766 20770 28
16617 20771 20772 28
16618 20771 20773 28
16619 20771 20774 28
16620 20771 20775 28
16621 20776 20777 28
16622 20776 20778 28
16623 20776 20779 28
16624 20776 20780 28
16625 20781 20782 28
16626 20781 20783 28
16627 20781 20784 28
16628 20781 20785 28
16629 20786 20787 28
16630 20786 20788 28
16631 20786 20789 28
16632 20786 20790 28
16633 20791 20792 28
16634 20791 20793 28
16635 20791 20794 28
16636 20791 20795 28
16637 20796 20797 28
16638 20796 20798 28
16639 20796 20799 28
16640 20796 20800 28
16641 20801 20802 28
16642 20801 20803 28
16643 20801 20804 28
16644 20801 20805 28
16645 20806 20807 28
16646 20806 20808 28
16647 20806 20809 28
16648 20806 20810 28
16649 20811 20812 28
16650 20811 20813 28
16651 20811 20814 28
16652 20811 20815 28
16653 20816 20817 28
16654 20816 20818 28
16655 20816 20819 28
16656 20816 20820 28
16657 20821 20822 28
16658 20821 20823 28
16659 20821 20824 28
16660 20821 20825 28
16661 20826 20827 28
16662 20826 20828 28
16663 20826 20829 28
16664 20826 20830 28
16665 20831 20832 28
16666 20831 20833 28
16667 20831 20834 28
16668 20831 20835 28
16669 20836 20837 28
16670 20836 20838 28
16671 20836 20839 28
16672 20836 20840 28
16673 20841 20842 28
16674 20841 20843 28
16675 20841 20844 28
16676 20841 20845 28
16677 20846 20847 28
16678 20846 20848 28
16679 20846 20849 28
16680 20846 20850 28
16681 20851 20852 28
16682 20851 20853 28
16683 20851 20854 28
16684 20851 20855 28
16685 20856 20857 28
16686 20856 20858 28
16687 20856 20859 28
16688 20856 20860 28
16689 20861 20862 28
16690 20861 20863 28
16691 20861 20864 28
16692 20861 20865 28
16693 20866 20867 28
16694 20866 20868 28
16695 20866 20869 28
16696 20866 20870 28
16697 20871 20872 28
16698 20871 20873 28
16699 20871 20874 28
16700 20871 20875 28
16701 20876 20877 28
16702 20876 20878 28
16703 20876 20879 28
16704 20876 20880 28
16705 20881 20882 28
16706 20881 20883 28
16707 20881 20884 28
16708 20881 20885 28
16709 20886 20887 28
16710 20886 20888 28
16711 20886 20889 28
16712 20886 20890 28
16713 20891 20892 28
16714 20891 20893 28
16715 20891 20894 28
16716 20891 20895 28
16717 20896 20897 28
16718 20896 20898 28
16719 20896 20899 28
16720 20896 20900 28
16721 20901 20902 28
16722 20901 20903 28
16723 20901 20904 28
16724 20901 20905 28
16725 20906 20907 28
16726 20906 20908 28
16727 20906 20909 28
16728 20906 20910 28
16729 20911 20912 28
16730 20911 20913 28
16731 20911 20914 28
16732 20911 20915 28
16733 20916 20917 28
16734 20916 20918 28
16735 20916 20919 28
16736 20916 20920 28
16737 20921 20922 28
16738 20921 20923 28
16739 20921 20924 28
16740 20921 20925 28
16741 20926 20927 28
16742 20926 20928 28
16743 20926 20929 28
16744 20926 20930 28
16745 20931 20932 28
16746 20931 20933 28
16747 20931 20934 28
16748 20931 20935 28
16749 20936 20937 28
16750 20936 20938 28
16751 20936 20939 28
16752 20936 20940 28
16753 20941 20942 28
16754 20941 20943 28
16755 20941 20944 28
16756 20941 20945 28
16757 20946 20947 28
16758 20946 20948 28
16759 20946 20949 28
16760 20946 20950 28
16761 20951 20952 28
16762 20951 20953 28
16763 20951 20954 28
16764 20951 20955 28
16765 20956 20957 28
16766 20956 20958 28
16767 20956 20959 28
16768 20956 20960 28
16769 20961 20962 28
16770 20961 20963 28
16771 20961 20964 28
16772 20961 20965 28
16773 20966 20967 28
16774 20966 20968 28
16775 20966 20969 28
16776 20966 20970 28
16777 20971 20972 28
16778 20971 20973 28
16779 20971 20974 28
16780 20971 20975 28
16781 20976 20977 28
16782 20976 20978 28
16783 20976 20979 28
16784 20976 20980 28
16785 20981 20982 28
16786 20981 20983 28
16787 20981 20984 28
16788 20981 20985 28
16789 20986 20987 28
16790 20986 20988 28
16791 20986 20989 28
16792 20986 20990 28
16793 20991 20992 28
16794 20991 20993 28
16795 20991 20994 28
16796 20991 20995 28
16797 20996 20997 28
16798 20996 20998 28
16799 20996 20999 28
16800 20996 21000 28
16801 21001 21002 28
16802 21001 21003 28
16803 21001 21004 28
16804 21001 21005 28
16805 21006 21007 28
16806 21006 21008 28
16807 21006 21009 28
16808 21006 21010 28
16809 21011 21012 28
16810 21011 21013 28
16811 21011 21014 28
16812 21011 21015 28
16813 21016 21017 28
16814 21016 21018 28
16815 21016 21019 28
16816 21016 21020 28
16817 21021 21022 28
16818 21021 21023 28
16819 21021 21024 28
16820 21021 21025 28
16821 21026 21027 28
16822 21026 21028 28
16823 21026 21029 28
16824 21026 21030 28
16825 21031 21032 28
16826 21031 21033 28
16827 21031 21034 28
16828 21031 21035 28
16829 21036 21037 28
16830 21036 21038 28
16831 21036 21039 28
16832 21036 21040 28
16833 21041 21042 28
16834 21041 21043 28
16835 21041 21044 28
16836 21041 21045 28
16837 21046 21047 28
16838 21046 21048 28
16839 21046 21049 28
16840 21046 21050 28
16841 21051 21052 28
16842 21051 21053 28
16843 21051 21054 28
16844 21051 21055 28
16845 21056 21057 28
16846 21056 21058 28
16847 21056 21059 28
16848 21056 21060 28
16849 21061 21062 28
16850 21061 21063 28
16851 21061 21064 28
16852 21061 21065 28
16853 21066 21067 28
16854 21066 21068 28
16855 21066 21069 28
16856 21066 21070 28
16857 21071 21072 28
16858 21071 21073 28
16859 21071 21074 28
16860 21071 21075 28
16861 21076 21077 28
16862 21076 21078 28
16863 21076 21079 28
16864 21076 21080 28
16865 21081 21082 28
16866 21081 21083 28
16867 21081 21084 28
16868 21081 21085 28
16869 21086 21087 28
16870 21086 21088 28
16871 21086 21089 28
16872 21086 21090 28
16873 21091 21092 28
16874 21091 21093 28
16875 21091 21094 28
16876 21091 21095 28
16877 21096 21097 28
16878 21096 21098 28
16879 21096 21099 28
16880 21096 21100 28
16881 21101 21102 28
16882 21101 21103 28
16883 21101 21104 28
16884 21101 21105 28
16885 21106 21107 28
16886 21106 21108 28
16887 21106 21109 28
16888 21106 21110 28
16889 21111 21112 28
16890 21111 21113 28
16891 21111 21114 28
16892 21111 21115 28
16893 21116 21117 28
16894 21116 21118 28
16895 21116 21119 28
16896 21116 21120 28
16897 21121 21122 28
16898 21121 21123 28
16899 21121 21124 28
16900 21121 21125 28
16901 21126 21127 28
16902 21126 21128 28
16903 21126 21129 28
16904 21126 21130 28
16905 21131 21132 28
16906 21131 21133 28
16907 21131 21134 28
16908 21131 21135 28
16909 21136 21137 28
16910 21136 21138 28
16911 21136 21139 28
16912 21136 21140 28
16913 21141 21142 28
16914 21141 21143 28
16915 21141 21144 28
16916 21141 21145 28
16917 21146 21147 28
16918 21146 21148 28
16919 21146 21149 28
16920 21146 21150 28
16921 21151 21152 28
16922 21151 21153 28
16923 21151 21154 28
16924 21151 21155 28
16925 21156 21157 28
16926 21156 21158 28
16927 21156 21159 28
16928 21156 21160 28
16929 21161 21162 28
16930 21161 21163 28
16931 21161 21164 28
16932 21161 21165 28
16933 21166 21167 28
16934 21166 21168 28
16935 21166 21169 28
16936 21166 21170 28
16937 21171 21172 28
16938 21171 21173 28
16939 21171 21174 28
16940 21171 21175 28
16941 21176 21177 28
16942 21176 21178 28
16943 21176 21179 28
16944 21176 21180 28
16945 21181 21182 28
16946 21181 21183 28
16947 21181 21184 28
16948 21181 21185 28
16949 21186 21187 28
16950 21186 21188 28
16951 21186 21189 28
16952 21186 21190 28
16953 21191 21192 28
16954 21191 21193 28
16955 21191 21194 28
16956 21191 21195 28
16957 21196 21197 28
16958 21196 21198 28
16959 21196 21199 28
16960 21196 21200 28
16961 21201 21202 28
16962 21201 21203 28
16963 21201 21204 28
16964 21201 21205 28
16965 21206 21207 28
16966 21206 21208 28
16967 21206 21209 28
16968 21206 21210 28
16969 21211 21212 28
16970 21211 21213 28
16971 21211 21214 28
16972 21211 21215 28
16973 21216 21217 28
16974 21216 21218 28
16975 21216 21219 28
16976 21216 21220 28
16977 21221 21222 28
16978 21221 21223 28
16979 21221 21224 28
16980 21221 21225 28
16981 21226 21227 28
16982 21226 21228 28
16983 21226 21229 28
16984 21226 21230 28
16985 21231 21232 28
16986 21231 21233 28
16987 21231 21234 28
16988 21231 21235 28
16989 21236 21237 28
16990 21236 21238 28
16991 21236 21239 28
16992 21236 21240 28
16993 21241 21242 28
16994 21241 21243 28
16995 21241 21244 28
16996 21241 21245 28
16997 21246 21247 28
16998 21246 21248 28
16999 21246 21249 28
17000 21246 21250 28
17001 21251 21252 28
17002 21251 21253 28
17003 21251 21254 28
17004 21251 21255 28
17005 21256 21257 28
17006 21256 21258 28
17007 21256 21259 28
17008 21256 21260 28
17009 21261 21262 28
17010 21261 21263 28
17011 21261 21264 28
17012 21261 21265 28
17013 21266 21267 28
17014 21266 21268 28
17015 21266 21269 28
17016 21266 21270 28
17017 21271 21272 28
17018 21271 21273 28
17019 21271 21274 28
17020 21271 21275 28
17021 21276 21277 28
17022 21276 21278 28
17023 21276 21279 28
17024 21276 21280 28
17025 21281 21282 28
17026 21281 21283 28
17027 21281 21284 28
17028 21281 21285 28
17029 21286 21287 28
17030 21286 21288 28
17031 21286 21289 28
17032 21286 21290 28
17033 21291 21292 28
17034 21291 21293 28
17035 21291 21294 28
17036 21291 21295 28
17037 21296 21297 28
17038 21296 21298 28
17039 21296 21299 28
17040 21296 21300 28
17041 21301 21302 28
17042 21301 21303 28
17043 21301 21304 28
17044 21301 21305 28
17045 21306 21307 28
17046 21306 21308 28
17047 21306 21309 28
17048 21306 21310 28
17049 21311 21312 28
17050 21311 21313 28
17051 21311 21314 28
17052 21311 21315 28
17053 21316 21317 28
17054 21316 21318 28
17055 21316 21319 28
17056 21316 21320 28
17057 21321 21322 28
17058 21321 21323 28
17059 21321 21324 28
17060 21321 21325 28
17061 21326 21327 28
17062 21326 21328 28
17063 21326 21329 28
17064 21326 21330 28
17065 21331 21332 28
17066 21331 21333 28
17067 21331 21334 28
17068 21331 21335 28
17069 21336 21337 28
17070 21336 21338 28
17071 21336 21339 28
17072 21336 21340 28
17073 21341 21342 28
17074 21341 21343 28
17075 21341 21344 28
17076 21341 21345 28
17077 21346 21347 28
17078 21346 21348 28
17079 21346 21349 28
17080 21346 21350 28
17081 21351 21352 28
17082 21351 21353 28
17083 21351 21354 28
17084 21351 21355 28
17085 21356 21357 28
17086 21356 21358 28
17087 21356 21359 28
17088 21356 21360 28
17089 21361 21362 28
17090 21361 21363 28
17091 21361 21364 28
17092 21361 21365 28
17093 21366 21367 28
17094 21366 21368 28
17095 21366 21369 28
17096 21366 21370 28
17097 21371 21372 28
17098 21371 21373 28
17099 21371 21374 28
17100 21371 21375 28
17101 21376 21377 28
17102 21376 21378 28
17103 21376 21379 28
17104 21376 21380 28
17105 21381 21382 28
17106 21381 21383 28
17107 21381 21384 28
17108 21381 21385 28
17109 21386 21387 28
17110 21386 21388 28
17111 21386 21389 28
17112 21386 21390 28
17113 21391 21392 28
17114 21391 21393 28
17115 21391 21394 28
17116 21391 21395 28
17117 21396 21397 28
17118 21396 21398 28
17119 21396 21399 28
17120 21396 21400 28
17121 21401 21402 28
17122 21401 21403 28
17123 21401 21404 28
17124 21401 21405 28
17125 21406 21407 28
17126 21406 21408 28
17127 21406 21409 28
17128 21406 21410 28
17129 21411 21412 28
17130 21411 21413 28
17131 21411 21414 28
17132 21411 21415 28
17133 21416 21417 28
17134 21416 21418 28
17135 21416 21419 28
17136 21416 21420 28
17137 21421 21422 28
17138 21421 21423 28
17139 21421 21424 28
17140 21421 21425 28
17141 21426 21427 28
17142 21426 21428 28
17143 21426 21429 28
17144 21426 21430 28
17145 21431 21432 28
17146 21431 21433 28
17147 21431 21434 28
17148 21431 21435 28
17149 21436 21437 28
17150 21436 21438 28
17151 21436 21439 28
17152 21436 21440 28
17153 21441 21442 28
17154 21441 21443 28
17155 21441 21444 28
17156 21441 21445 28
17157 21446 21447 28
17158 21446 21448 28
17159 21446 21449 28
17160 21446 21450 28
17161 21451 21452 28
17162 21451 21453 28
17163 21451 21454 28
17164 21451 21455 28
17165 21456 21457 28
17166 21456 21458 28
17167 21456 21459 28
17168 21456 21460 28
17169 21461 21462 28
17170 21461 21463 28
17171 21461 21464 28
17172 21461 21465 28
17173 21466 21467 28
17174 21466 21468 28
17175 21466 21469 28
17176 21466 21470 28
17177 21471 21472 28
17178 21471 21473 28
17179 21471 21474 28
17180 21471 21475 28
17181 21476 21477 28
17182 21476 21478 28
17183 21476 21479 28
17184 21476 21480 28
17185 21481 21482 28
17186 21481 21483 28
17187 21481 21484 28
17188 21481 21485 28
17189 21486 21487 28
17190 21486 21488 28
17191 21486 21489 28
17192 21486 21490 28
17193 21491 21492 28
17194 21491 21493 28
17195 21491 21494 28
17196 21491 21495 28
17197 21496 21497 28
17198 21496 21498 28
17199 21496 21499 28
17200 21496 21500 28
17201 21501 21502 28
17202 21501 21503 28
17203 21501 21504 28
17204 21501 21505 28
17205 21506 21507 28
17206 21506 21508 28
17207 21506 21509 28
17208 21506 21510 28
17209 21511 21512 28
17210 21511 21513 28
17211 21511 21514 28
17212 21511 21515 28
17213 21516 21517 28
17214 21516 21518 28
17215 21516 21519 28
17216 21516 21520 28
17217 21521 21522 28
17218 21521 21523 28
17219 21521 21524 28
17220 21521 21525 28
17221 21526 21527 28
17222 21526 21528 28
17223 21526 21529 28
17224 21526 21530 28
17225 21531 21532 28
17226 21531 21533 28
17227 21531 21534 28
17228 21531 21535 28
17229 21536 21537 28
17230 21536 21538 28
17231 21536 21539 28
17232 21536 21540 28
17233 21541 21542 28
17234 21541 21543 28
17235 21541 21544 28
17236 21541 21545 28
17237 21546 21547 28
17238 21546 21548 28
17239 21546 21549 28
17240 21546 21550 28
17241 21551 21552 28
17242 21551 21553 28
17243 21551 21554 28
17244 21551 21555 28
17245 21556 21557 28
17246 21556 21558 28
17247 21556 21559 28
17248 21556 21560 28
17249 21561 21562 28
17250 21561 21563 28
17251 21561 21564 28
17252 21561 21565 28
17253 21566 21567 28
17254 21566 21568 28
17255 21566 21569 28
17256 21566 21570 28
17257 21571 21572 28
17258 21571 21573 28
17259 21571 21574 28
17260 21571 21575 28
17261 21576 21577 28
17262 21576 21578 28
17263 21576 21579 28
17264 21576 21580 28
17265 21581 21582 28
17266 21581 21583 28
17267 21581 21584 28
17268 21581 21585 28
17269 21586 21587 28
17270 21586 21588 28
17271 21586 21589 28
17272 21586 21590 28
17273 21591 21592 28
17274 21591 21593 28
17275 21591 21594 28
17276 21591 21595 28
17277 21596 21597 28
17278 21596 21598 28
17279 21596 21599 28
17280 21596 21600 28
17281 21601 21602 28
17282 21601 21603 28
17283 21601 21604 28
17284 21601 21605 28
17285 21606 21607 28
17286 21606 21608 28
17287 21606 21609 28
17288 21606 21610 28
17289 21611 21612 28
17290 21611 21613 28
17291 21611 21614 28
17292 21611 21615 28
17293 21616 21617 28
17294 21616 21618 28
17295 21616 21619 28
17296 21616 21620 28
17297 21621 21622 28
17298 21621 21623 28
17299 21621 21624 28
17300 21621 21625 28
17301 21626 21627 28
17302 21626 21628 28
17303 21626 21629 28
17304 21626 21630 28
17305 21631 21632 28
17306 21631 21633 28
17307 21631 21634 28
17308 21631 21635 28
17309 21636 21637 28
17310 21636 21638 28
17311 21636 21639 28
17312 21636 21640 28
17313 21641 21642 28
17314 21641 21643 28
17315 21641 21644 28
17316 21641 21645 28
17317 21646 21647 28
17318 21646 21648 28
17319 21646 21649 28
17320 21646 21650 28
17321 21651 21652 28
17322 21651 21653 28
17323 21651 21654 28
17324 21651 21655 28
17325 21656 21657 28
17326 21656 21658 28
17327 21656 21659 28
17328 21656 21660 28
17329 21661 21662 28
17330 21661 21663 28
17331 21661 21664 28
17332 21661 21665 28
17333 21666 21667 28
17334 21666 21668 28
17335 21666 21669 28
17336 21666 21670 28
17337 21671 21672 28
17338 21671 21673 28
17339 21671 21674 28
17340 21671 21675 28
17341 21676 21677 28
17342 21676 21678 28
17343 21676 21679 28
17344 21676 21680 28
17345 21681 21682 28
17346 21681 21683 28
17347 21681 21684 28
17348 21681 21685 28
17349 21686 21687 28
17350 21686 21688 28
17351 21686 21689 28
17352 21686 21690 28
17353 21691 21692 28
17354 21691 21693 28
17355 21691 21694 28
17356 21691 21695 28
17357 21696 21697 28
17358 21696 21698 28
17359 21696 21699 28
17360 21696 21700 28
17361 21701 21702 28
17362 21701 21703 28
17363 21701 21704 28
17364 21701 21705 28
17365 21706 21707 28
17366 21706 21708 28
17367 21706 21709 28
17368 21706 21710 28
17369 21711 21712 28
17370 21711 21713 28
17371 21711 21714 28
17372 21711 21715 28
17373 21716 21717 28
17374 21716 21718 28
17375 21716 21719 28
17376 21716 21720 28
17377 21721 21722 28
17378 21721 21723 28
17379 21721 21724 28
17380 21721 21725 28
17381 21726 21727 28
17382 21726 21728 28
17383 21726 21729 28
17384 21726 21730 28
17385 21731 21732 28
17386 21731 21733 28
17387 21731 21734 28
17388 21731 21735 28
17389 21736 21737 28
17390 21736 21738 28
17391 21736 21739 28
17392 21736 21740 28
17393 21741 21742 28
17394 21741 21743 28
17395 21741 21744 28
17396 21741 21745 28
17397 21746 21747 28
17398 21746 21748 28
17399 21746 21749 28
17400 21746 21750 28
17401 21751 21752 28
17402 21751 21753 28
17403 21751 21754 28
17404 21751 21755 28
17405 21756 21757 28
17406 21756 21758 28
17407 21756 21759 28
17408 21756 21760 28
17409 21761 21762 28
17410 21761 21763 28
17411 21761 21764 28
17412 21761 21765 28
17413 21766 21767 28
17414 21766 21768 28
17415 21766 21769 28
17416 21766 21770 28
17417 21771 21772 28
17418 21771 21773 28
17419 21771 21774 28
17420 21771 21775 28
17421 21776 21777 28
17422 21776 21778 28
17423 21776 21779 28
17424 21776 21780 28
17425 21781 21782 28
17426 21781 21783 28
17427 21781 21784 28
17428 21781 21785 28
17429 21786 21787 28
17430 21786 21788 28
17431 21786 21789 28
17432 21786 21790 28
17433 21791 21792 28
17434 21791 21793 28
17435 21791 21794 28
17436 21791 21795 28
17437 21796 21797 28
17438 21796 21798 28
17439 21796 21799 28
17440 21796 21800 28
17441 21801 21802 28
17442 21801 21803 28
17443 21801 21804 28
17444 21801 21805 28
17445 21806 21807 28
17446 21806 21808 28
17447 21806 21809 28
17448 21806 21810 28
17449 21811 21812 28
17450 21811 21813 28
17451 21811 21814 28
17452 21811 21815 28
17453 21816 21817 28
17454 21816 21818 28
17455 21816 21819 28
17456 21816 21820 28
17457 21821 21822 28
17458 21821 21823 28
17459 21821 21824 28
17460 21821 21825 28
17461 21826 21827 28
17462 21826 21828 28
17463 21826 21829 28
17464 21826 21830 28
17465 21831 21832 28
17466 21831 21833 28
17467 21831 21834 28
17468 21831 21835 28
17469 21836 21837 28
17470 21836 21838 28
17471 21836 21839 28
17472 21836 21840 28
17473 21841 21842 28
17474 21841 21843 28
17475 21841 21844 28
17476 21841 21845 28
17477 21846 21847 28
17478 21846 21848 28
17479 21846 21849 28
17480 21846 21850 28
17481 21851 21852 28
17482 21851 21853 28
17483 21851 21854 28
17484 21851 21855 28
17485 21856 21857 28
17486 21856 21858 28
17487 21856 21859 28
17488 21856 21860 28
17489 21861 21862 28
17490 21861 21863 28
17491 21861 21864 28
17492 21861 21865 28
17493 21866 21867 28
17494 21866 21868 28
17495 21866 21869 28
17496 21866 21870 28
17497 21871 21872 28
17498 21871 21873 28
17499 21871 21874 28
17500 21871 21875 28
17501 21876 21877 28
17502 21876 21878 28
17503 21876 21879 28
17504 21876 21880 28
17505 21881 21882 28
17506 21881 21883 28
17507 21881 21884 28
17508 21881 21885 28
17509 21886 21887 28
17510 21886 21888 28
17511 21886 21889 28
17512 21886 21890 28
17513 21891 21892 28
17514 21891 21893 28
17515 21891 21894 28
17516 21891 21895 28
17517 21896 21897 28
17518 21896 21898 28
17519 21896 21899 28
17520 21896 21900 28
17521 21901 21902 28
17522 21901 21903 28
17523 21901 21904 28
17524 21901 21905 28
17525 21906 21907 28
17526 21906 21908 28
17527 21906 21909 28
17528 21906 21910 28
17529 21911 21912 28
17530 21911 21913 28
17531 21911 21914 28
17532 21911 21915 28
17533 21916 21917 28
17534 21916 21918 28
17535 21916 21919 28
17536 21916 21920 28
17537 21921 21922 28
17538 21921 21923 28
17539 21921 21924 28
17540 21921 21925 28
17541 21926 21927 28
17542 21926 21928 28
17543 21926 21929 28
17544 21926 21930 28
17545 21931 21932 28
17546 21931 21933 28
17547 21931 21934 28
17548 21931 21935 28
17549 21936 21937 28
17550 21936 21938 28
17551 21936 21939 28
17552 21936 21940 28
17553 21941 21942 28
17554 21941 21943 28
17555 21941 21944 28
17556 21941 21945 28
17557 21946 21947 28
17558 21946 21948 28
17559 21946 21949 28
17560 21946 21950 28
17561 21951 21952 28
17562 21951 21953 28
17563 21951 21954 28
17564 21951 21955 28
17565 21956 21957 28
17566 21956 21958 28
17567 21956 21959 28
17568 21956 21960 28
17569 21961 21962 28
17570 21961 21963 28
17571 21961 21964 28
17572 21961 21965 28
17573 21966 21967 28
17574 21966 21968 28
17575 21966 21969 28
17576 21966 21970 28
17577 21971 21972 28
17578 21971 21973 28
17579 21971 21974 28
17580 21971 21975 28
17581 21976 21977 28
17582 21976 21978 28
17583 21976 21979 28
17584 21976 21980 28
17585 21981 21982 28
17586 21981 21983 28
17587 21981 21984 28
17588 21981 21985 28
17589 21986 21987 28
17590 21986 21988 28
17591 21986 21989 28
17592 21986 21990 28
17593 21991 21992 28
17594 21991 21993 28
17595 21991 21994 28
17596 21991 21995 28
17597 21996 21997 28
17598 21996 21998 28
17599 21996 21999 28
17600 21996 22000 28
17601 22001 22002 28
17602 22001 22003 28
17603 22001 22004 28
17604 22001 22005 28
17605 22006 22007 28
17606 22006 22008 28
17607 22006 22009 28
17608 22006 22010 28
17609 22011 22012 28
17610 22011 22013 28
17611 22011 22014 28
17612 22011 22015 28
17613 22016 22017 28
17614 22016 22018 28
17615 22016 22019 28
17616 22016 22020 28
17617 22021 22022 28
17618 22021 22023 28
17619 22021 22024 28
17620 22021 22025 28
17621 22026 22027 28
17622 22026 22028 28
17623 22026 22029 28
17624 22026 22030 28
17625 22031 22032 28
17626 22031 22033 28
17627 22031 22034 28
17628 22031 22035 28
17629 22036 22037 28
17630 22036 22038 28
17631 22036 22039 28
17632 22036 22040 28
17633 22041 22042 28
17634 22041 22043 28
17635 22041 22044 28
17636 22041 22045 28
17637 22046 22047 28
17638 22046 22048 28
17639 22046 22049 28
17640 22046 22050 28
17641 22051 22052 28
17642 22051 22053 28
17643 22051 22054 28
17644 22051 22055 28
17645 22056 22057 28
17646 22056 22058 28
17647 22056 22059 28
17648 22056 22060 28
17649 22061 22062 28
17650 22061 22063 28
17651 22061 22064 28
17652 22061 22065 28
17653 22066 22067 28
17654 22066 22068 28
17655 22066 22069 28
17656 22066 22070 28
17657 22071 22072 28
17658 22071 22073 28
17659 22071 22074 28
17660 22071 22075 28
17661 22076 22077 28
17662 22076 22078 28
17663 22076 22079 28
17664 22076 22080 28
17665 22081 22082 28
17666 22081 22083 28
17667 22081 22084 28
17668 22081 22085 28
17669 22086 22087 28
17670 22086 22088 28
17671 22086 22089 28
17672 22086 22090 28
17673 22091 22092 28
17674 22091 22093 28
17675 22091 22094 28
17676 22091 22095 28
17677 22096 22097 28
17678 22096 22098 28
17679 22096 22099 28
17680 22096 22100 28
17681 22101 22102 28
17682 22101 22103 28
17683 22101 22104 28
17684 22101 22105 28
17685 22106 22107 28
17686 22106 22108 28
17687 22106 22109 28
17688 22106 22110 28
17689 22111 22112 28
17690 22111 22113 28
17691 22111 22114 28
17692 22111 22115 28
17693 22116 22117 28
17694 22116 22118 28
17695 22116 22119 28
17696 22116 22120 28
17697 22121 22122 28
17698 22121 22123 28
17699 22121 22124 28
17700 22121 22125 28
17701 22126 22127 28
17702 22126 22128 28
17703 22126 22129 28
17704 22126 22130 28
17705 22131 22132 28
17706 22131 22133 28
17707 22131 22134 28
17708 22131 22135 28
17709 22136 22137 28
17710 22136 22138 28
17711 22136 22139 28
17712 22136 22140 28
17713 22141 22142 28
17714 22141 22143 28
17715 22141 22144 28
17716 22141 22145 28
17717 22146 22147 28
17718 22146 22148 28
17719 22146 22149 28
17720 22146 22150 28
17721 22151 22152 28
17722 22151 22153 28
17723 22151 22154 28
17724 22151 22155 28
17725 22156 22157 28
17726 22156 22158 28
17727 22156 22159 28
17728 22156 22160 28
17729 22161 22162 28
17730 22161 22163 28
17731 22161 22164 28
17732 22161 22165 28
17733 22166 22167 28
17734 22166 22168 28
17735 22166 22169 28
17736 22166 22170 28
17737 22171 22172 28
17738 22171 22173 28
17739 22171 22174 28
17740 22171 22175 28
17741 22176 22177 28
17742 22176 22178 28
17743 22176 22179 28
17744 22176 22180 28
17745 22181 22182 28
17746 22181 22183 28
17747 22181 22184 28
17748 22181 22185 28
17749 22186 22187 28
17750 22186 22188 28
17751 22186 22189 28
17752 22186 22190 28
17753 22191 22192 28
17754 22191 22193 28
17755 22191 22194 28
17756 22191 22195 28
17757 22196 22197 28
17758 22196 22198 28
17759 22196 22199 28
17760 22196 22200 28
17761 22201 22202 28
17762 22201 22203 28
17763 22201 22204 28
17764 22201 22205 28
17765 22206 22207 28
17766 22206 22208 28
17767 22206 22209 28
17768 22206 22210 28
17769 22211 22212 28
17770 22211 22213 28
17771 22211 22214 28
17772 22211 22215 28
17773 22216 22217 28
17774 22216 22218 28
17775 22216 22219 28
17776 22216 22220 28
17777 22221 22222 28
17778 22221 22223 28
17779 22221 22224 28
17780 22221 22225 28
17781 22226 22227 28
17782 22226 22228 28
17783 22226 22229 28
17784 22226 22230 28
17785 22231 22232 28
17786 22231 22233 28
17787 22231 22234 28
17788 22231 22235 28
17789 22236 22237 28
17790 22236 22238 28
17791 22236 22239 28
17792 22236 22240 28
17793 22241 22242 28
17794 22241 22243 28
17795 22241 22244 28
17796 22241 22245 28
17797 22246 22247 28
17798 22246 22248 28
17799 22246 22249 28
17800 22246 22250 28
17801 22251 22252 28
17802 22251 22253 28
17803 22251 22254 28
17804 22251 22255 28
17805 22256 22257 28
17806 22256 22258 28
17807 22256 22259 28
17808 22256 22260 28
17809 22261 22262 28
17810 22261 22263 28
17811 22261 22264 28
17812 22261 22265 28
17813 22266 22267 28
17814 22266 22268 28
17815 22266 22269 28
17816 22266 22270 28
17817 22271 22272 28
17818 22271 22273 28
17819 22271 22274 28
17820 22271 22275 28
17821 22276 22277 28
17822 22276 22278 28
17823 22276 22279 28
17824 22276 22280 28
17825 22281 22282 28
17826 22281 22283 28
17827 22281 22284 28
17828 22281 22285 28
17829 22286 22287 28
17830 22286 22288 28
17831 22286 22289 28
17832 22286 22290 28
17833 22291 22292 28
17834 22291 22293 28
17835 22291 22294 28
17836 22291 22295 28
17837 22296 22297 28
17838 22296 22298 28
17839 22296 22299 28
17840 22296 22300 28
17841 22301 22302 28
17842 22301 22303 28
17843 22301 22304 28
17844 22301 22305 28
17845 22306 22307 28
17846 22306 22308 28
17847 22306 22309 28
17848 22306 22310 28
17849 22311 22312 28
17850 22311 22313 28
17851 22311 22314 28
17852 22311 22315 28
17853 22316 22317 28
17854 22316 22318 28
17855 22316 22319 28
17856 22316 22320 28
17857 22321 22322 28
17858 22321 22323 28
17859 22321 22324 28
17860 22321 22325 28
17861 22326 22327 28
17862 22326 22328 28
17863 22326 22329 28
17864 22326 22330 28
17865 22331 22332 28
17866 22331 22333 28
17867 22331 22334 28
17868 22331 22335 28
17869 22336 22337 28
17870 22336 22338 28
17871 22336 22339 28
17872 22336 22340 28
17873 22341 22342 28
17874 22341 22343 28
17875 22341 22344 28
17876 22341 22345 28
17877 22346 22347 28
17878 22346 22348 28
17879 22346 22349 28
17880 22346 22350 28
17881 22351 22352 28
17882 22351 22353 28
17883 22351 22354 28
17884 22351 22355 28
17885 22356 22357 28
17886 22356 22358 28
17887 22356 22359 28
17888 22356 22360 28
17889 22361 22362 28
17890 22361 22363 28
17891 22361 22364 28
17892 22361 22365 28
17893 22366 22367 28
17894 22366 22368 28
17895 22366 22369 28
17896 22366 22370 28
17897 22371 22372 28
17898 22371 22373 28
17899 22371 22374 28
17900 22371 22375 28
17901 22376 22377 28
17902 22376 22378 28
17903 22376 22379 28
17904 22376 22380 28
17905 22381 22382 28
17906 22381 22383 28
17907 22381 22384 28
17908 22381 22385 28
17909 22386 22387 28
17910 22386 22388 28
17911 22386 22389 28
17912 22386 22390 28
17913 22391 22392 28
17914 22391 22393 28
17915 22391 22394 28
17916 22391 22395 28
17917 22396 22397 28
17918 22396 22398 28
17919 22396 22399 28
17920 22396 22400 28
17921 22401 22402 28
17922 22401 22403 28
17923 22401 22404 28
17924 22401 22405 28
17925 22406 22407 28
17926 22406 22408 28
17927 22406 22409 28
17928 22406 22410 28
17929 22411 22412 28
17930 22411 22413 28
17931 22411 22414 28
17932 22411 22415 28
17933 22416 22417 28
17934 22416 22418 28
17935 22416 22419 28
17936 22416 22420 28
17937 22421 22422 28
17938 22421 22423 28
17939 22421 22424 28
17940 22421 22425 28
17941 22426 22427 28
17942 22426 22428 28
17943 22426 22429 28
17944 22426 22430 28
17945 22431 22432 28
17946 22431 22433 28
17947 22431 22434 28
17948 22431 22435 28
17949 22436 22437 28
17950 22436 22438 28
17951 22436 22439 28
17952 22436 22440 28
17953 22441 22442 28
17954 22441 22443 28
17955 22441 22444 28
17956 22441 22445 28
17957 22446 22447 28
17958 22446 22448 28
17959 22446 22449 28
17960 22446 22450 28
17961 22451 22452 28
17962 22451 22453 28
17963 22451 22454 28
17964 22451 22455 28
17965 22456 22457 28
17966 22456 22458 28
17967 22456 22459 28
17968 22456 22460 28
17969 22461 22462 28
17970 22461 22463 28
17971 22461 22464 28
17972 22461 22465 28
17973 22466 22467 28
17974 22466 22468 28
17975 22466 22469 28
17976 22466 22470 28
17977 22471 22472 28
17978 22471 22473 28
17979 22471 22474 28
17980 22471 22475 28
17981 22476 22477 28
17982 22476 22478 28
17983 22476 22479 28
17984 22476 22480 28
17985 22481 22482 28
17986 22481 22483 28
17987 22481 22484 28
17988 22481 22485 28
17989 22486 22487 28
17990 22486 22488 28
17991 22486 22489 28
17992 22486 22490 28
17993 22491 22492 28
17994 22491 22493 28
17995 22491 22494 28
17996 22491 22495 28
17997 22496 22497 28
17998 22496 22498 28
17999 22496 22499 28
18000 22496 22500 28
18001 22501 22502 28
18002 22501 22503 28
18003 22501 22504 28
18004 22501 22505 28
18005 22506 22507 28
18006 22506 22508 28
18007 22506 22509 28
18008 22506 22510 28
18009 22511 22512 28
18010 22511 22513 28
18011 22511 22514 28
18012 22511 22515 28
18013 22516 22517 28
18014 22516 22518 28
18015 22516 22519 28
18016 22516 22520 28
18017 22521 22522 28
18018 22521 22523 28
18019 22521 22524 28
18020 22521 22525 28
18021 22526 22527 28
18022 22526 22528 28
18023 22526 22529 28
18024 22526 22530 28
18025 22531 22532 28
18026 22531 22533 28
18027 22531 22534 28
18028 22531 22535 28
18029 22536 22537 28
18030 22536 22538 28
18031 22536 22539 28
18032 22536 22540 28
18033 22541 22542 28
18034 22541 22543 28
18035 22541 22544 28
18036 22541 22545 28
18037 22546 22547 28
18038 22546 22548 28
18039 22546 22549 28
18040 22546 22550 28
18041 22551 22552 28
18042 22551 22553 28
18043 22551 22554 28
18044 22551 22555 28
18045 22556 22557 28
18046 22556 22558 28
18047 22556 22559 28
18048 22556 22560 28
18049 22561 22562 28
18050 22561 22563 28
18051 22561 22564 28
18052 22561 22565 28
18053 22566 22567 28
18054 22566 22568 28
18055 22566 22569 28
18056 22566 22570 28
18057 22571 22572 28
18058 22571 22573 28
18059 22571 22574 28
18060 22571 22575 28
18061 22576 22577 28
18062 22576 22578 28
18063 22576 22579 28
18064 22576 22580 28
18065 22581 22582 28
18066 22581 22583 28
18067 22581 22584 28
18068 22581 22585 28
18069 22586 22587 28
18070 22586 22588 28
18071 22586 22589 28
18072 22586 22590 28
18073 22591 22592 28
18074 22591 22593 28
18075 22591 22594 28
18076 22591 22595 28
18077 22596 22597 28
18078 22596 22598 28
18079 22596 22599 28
18080 22596 22600 28
18081 22601 22602 28
18082 22601 22603 28
18083 22601 22604 28
18084 22601 22605 28
18085 22606 22607 28
18086 22606 22608 28
18087 22606 22609 28
18088 22606 22610 28
18089 22611 22612 28
18090 22611 22613 28
18091 22611 22614 28
18092 22611 22615 28
18093 22616 22617 28
18094 22616 22618 28
18095 22616 22619 28
18096 22616 22620 28
18097 22621 22622 28
18098 22621 22623 28
18099 22621 22624 28
18100 22621 22625 28
18101 22626 22627 28
18102 22626 22628 28
18103 22626 22629 28
18104 22626 22630 28
18105 22631 22632 28
18106 22631 22633 28
18107 22631 22634 28
18108 22631 22635 28
18109 22636 22637 28
18110 22636 22638 28
18111 22636 22639 28
18112 22636 22640 28
18113 22641 22642 28
18114 22641 22643 28
18115 22641 22644 28
18116 22641 22645 28
18117 22646 22647 28
18118 22646 22648 28
18119 22646 22649 28
18120 22646 22650 28
18121 22651 22652 28
18122 22651 22653 28
18123 22651 22654 28
18124 22651 22655 28
18125 22656 22657 28
18126 22656 22658 28
18127 22656 22659 28
18128 22656 22660 28
18129 22661 22662 28
18130 22661 22663 28
18131 22661 22664 28
18132 22661 22665 28
18133 22666 22667 28
18134 22666 22668 28
18135 22666 22669 28
18136 22666 22670 28
18137 22671 22672 28
18138 22671 22673 28
18139 22671 22674 28
18140 22671 22675 28
18141 22676 22677 28
18142 22676 22678 28
18143 22676 22679 28
18144 22676 22680 28
18145 22681 22682 28
18146 22681 22683 28
18147 22681 22684 28
18148 22681 22685 28
18149 22686 22687 28
18150 22686 22688 28
18151 22686 22689 28
18152 22686 22690 28
18153 22691 22692 28
18154 22691 22693 28
18155 22691 22694 28
18156 22691 22695 28
18157 22696 22697 28
18158 22696 22698 28
18159 22696 22699 28
18160 22696 22700 28
18161 22701 22702 28
18162 22701 22703 28
18163 22701 22704 28
18164 22701 22705 28
18165 22706 22707 28
18166 22706 22708 28
18167 22706 22709 28
18168 22706 22710 28
18169 22711 22712 28
18170 22711 22713 28
18171 22711 22714 28
18172 22711 22715 28
18173 22716 22717 28
18174 22716 22718 28
18175 22716 22719 28
18176 22716 22720 28
18177 22721 22722 28
18178 22721 22723 28
18179 22721 22724 28
18180 22721 22725 28
18181 22726 22727 28
18182 22726 22728 28
18183 22726 22729 28
18184 22726 22730 28
18185 22731 22732 28
18186 22731 22733 28
18187 22731 22734 28
18188 22731 22735 28
18189 22736 22737 28
18190 22736 22738 28
18191 22736 22739 28
18192 22736 22740 28
18193 22741 22742 28
18194 22741 22743 28
18195 22741 22744 28
18196 22741 22745 28
18197 22746 22747 28
18198 22746 22748 28
18199 22746 22749 28
18200 22746 22750 28
18201 22751 22752 28
18202 22751 22753 28
18203 22751 22754 28
18204 22751 22755 28
18205 22756 22757 28
18206 22756 22758 28
18207 22756 22759 28
18208 22756 22760 28
18209 22761 22762 28
18210 22761 22763 28
18211 22761 22764 28
18212 22761 22765 28
18213 22766 22767 28
18214 22766 22768 28
18215 22766 22769 28
18216 22766 22770 28
18217 22771 22772 28
18218 22771 22773 28
18219 22771 22774 28
18220 22771 22775 28
18221 22776 22777 28
18222 22776 22778 28
18223 22776 22779 28
18224 22776 22780 28
18225 22781 22782 28
18226 22781 22783 28
18227 22781 22784 28
18228 22781 22785 28
18229 22786 22787 28
18230 22786 22788 28
18231 22786 22789 28
18232 22786 22790 28
18233 22791 22792 28
18234 22791 22793 28
18235 22791 22794 28
18236 22791 22795 28
18237 22796 22797 28
18238 22796 22798 28
18239 22796 22799 28
18240 22796 22800 28
18241 22801 22802 28
18242 22801 22803 28
18243 22801 22804 28
18244 22801 22805 28
18245 22806 22807 28
18246 22806 22808 28
18247 22806 22809 28
18248 22806 22810 28
18249 22811 22812 28
18250 22811 22813 28
18251 22811 22814 28
18252 22811 22815 28
18253 22816 22817 28
18254 22816 22818 28
18255 22816 22819 28
18256 22816 22820 28
18257 22821 22822 28
18258 22821 22823 28
18259 22821 22824 28
18260 22821 22825 28
18261 22826 22827 28
18262 22826 22828 28
18263 22826 22829 28
18264 22826 22830 28
18265 22831 22832 28
18266 22831 22833 28
18267 22831 22834 28
18268 22831 22835 28
18269 22836 22837 28
18270 22836 22838 28
18271 22836 22839 28
18272 22836 22840 28
18273 22841 22842 28
18274 22841 22843 28
18275 22841 22844 28
18276 22841 22845 28
18277 22846 22847 28
18278 22846 22848 28
18279 22846 22849 28
18280 22846 22850 28
18281 22851 22852 28
18282 22851 22853 28
18283 22851 22854 28
18284 22851 22855 28
18285 22856 22857 28
18286 22856 22858 28
18287 22856 22859 28
18288 22856 22860 28
18289 22861 22862 28
18290 22861 22863 28
18291 22861 22864 28
18292 22861 22865 28
18293 22866 22867 28
18294 22866 22868 28
18295 22866 22869 28
18296 22866 22870 28
18297 22871 22872 28
18298 22871 22873 28
18299 22871 22874 28
18300 22871 22875 28
18301 22876 22877 28
18302 22876 22878 28
18303 22876 22879 28
18304 22876 22880 28
18305 22881 22882 28
18306 22881 22883 28
18307 22881 22884 28
18308 22881 22885 28
18309 22886 22887 28
18310 22886 22888 28
18311 22886 22889 28
18312 22886 22890 28
18313 22891 22892 28
18314 22891 22893 28
18315 22891 22894 28
18316 22891 22895 28
18317 22896 22897 28
18318 22896 22898 28
18319 22896 22899 28
18320 22896 22900 28
18321 22901 22902 28
18322 22901 22903 28
18323 22901 22904 28
18324 22901 22905 28
18325 22906 22907 28
18326 22906 22908 28
18327 22906 22909 28
18328 22906 22910 28
18329 22911 22912 28
18330 22911 22913 28
18331 22911 22914 28
18332 22911 22915 28
18333 22916 22917 28
18334 22916 22918 28
18335 22916 22919 28
18336 22916 22920 28
18337 22921 22922 28
18338 22921 22923 28
18339 22921 22924 28
18340 22921 22925 28
18341 22926 22927 28
18342 22926 22928 28
18343 22926 22929 28
18344 22926 22930 28
18345 22931 22932 28
18346 22931 22933 28
18347 22931 22934 28
18348 22931 22935 28
18349 22936 22937 28
18350 22936 22938 28
18351 22936 22939 28
18352 22936 22940 28
18353 22941 22942 28
18354 22941 22943 28
18355 22941 22944 28
18356 22941 22945 28
18357 22946 22947 28
18358 22946 22948 28
18359 22946 22949 28
18360 22946 22950 28
18361 22951 22952 28
18362 22951 22953 28
18363 22951 22954 28
18364 22951 22955 28
18365 22956 22957 28
18366 22956 22958 28
18367 22956 22959 28
18368 22956 22960 28
18369 22961 22962 28
18370 22961 22963 28
18371 22961 22964 28
18372 22961 22965 28
18373 22966 22967 28
18374 22966 22968 28
18375 22966 22969 28
18376 22966 22970 28
18377 22971 22972 28
18378 22971 22973 28
18379 22971 22974 28
18380 22971 22975 28
18381 22976 22977 28
18382 22976 22978 28
18383 22976 22979 28
18384 22976 22980 28
18385 22981 22982 28
18386 22981 22983 28
18387 22981 22984 28
18388 22981 22985 28
18389 22986 22987 28
18390 22986 22988 28
18391 22986 22989 28
18392 22986 22990 28
18393 22991 22992 28
18394 22991 22993 28
18395 22991 22994 28
18396 22991 22995 28
18397 22996 22997 28
18398 22996 22998 28
18399 22996 22999 28
18400 22996 23000 28
18401 23001 23002 28
18402 23001 23003 28
18403 23001 23004 28
18404 23001 23005 28
18405 23006 23007 28
18406 23006 23008 28
18407 23006 23009 28
18408 23006 23010 28
18409 23011 23012 28
18410 23011 23013 28
18411 23011 23014 28
18412 23011 23015 28
18413 23016 23017 28
18414 23016 23018 28
18415 23016 23019 28
18416 23016 23020 28
18417 23021 23022 28
18418 23021 23023 28
18419 23021 23024 28
18420 23021 23025 28
18421 23026 23027 28
18422 23026 23028 28
18423 23026 23029 28
18424 23026 23030 28
18425 23031 23032 28
18426 23031 23033 28
18427 23031 23034 28
18428 23031 23035 28
18429 23036 23037 28
18430 23036 23038 28
18431 23036 23039 28
18432 23036 23040 28
18433 23041 23042 28
18434 23041 23043 28
18435 23041 23044 28
18436 23041 23045 28
18437 23046 23047 28
18438 23046 23048 28
18439 23046 23049 28
18440 23046 23050 28
18441 23051 23052 28
18442 23051 23053 28
18443 23051 23054 28
18444 23051 23055 28
18445 23056 23057 28
18446 23056 23058 28
18447 23056 23059 28
18448 23056 23060 28
18449 23061 23062 28
18450 23061 23063 28
18451 23061 23064 28
18452 23061 23065 28
18453 23066 23067 28
18454 23066 23068 28
18455 23066 23069 28
18456 23066 23070 28
18457 23071 23072 28
18458 23071 23073 28
18459 23071 23074 28
18460 23071 23075 28
18461 23076 23077 28
18462 23076 23078 28
18463 23076 23079 28
18464 23076 23080 28
18465 23081 23082 28
18466 23081 23083 28
18467 23081 23084 28
18468 23081 23085 28
18469 23086 23087 28
18470 23086 23088 28
18471 23086 23089 28
18472 23086 23090 28
18473 23091 23092 28
18474 23091 23093 28
18475 23091 23094 28
18476 23091 23095 28
18477 23096 23097 28
18478 23096 23098 28
18479 23096 23099 28
18480 23096 23100 28
18481 23101 23102 28
18482 23101 23103 28
18483 23101 23104 28
18484 23101 23105 28
18485 23106 23107 28
18486 23106 23108 28
18487 23106 23109 28
18488 23106 23110 28
18489 23111 23112 28
18490 23111 23113 28
18491 23111 23114 28
18492 23111 23115 28
18493 23116 23117 28
18494 23116 23118 28
18495 23116 23119 28
18496 23116 23120 28
18497 23121 23122 28
18498 23121 23123 28
18499 23121 23124 28
18500 23121 23125 28
18501 23126 23127 28
18502 23126 23128 28
18503 23126 23129 28
18504 23126 23130 28
18505 23131 23132 28
18506 23131 23133 28
18507 23131 23134 28
18508 23131 23135 28
18509 23136 23137 28
18510 23136 23138 28
18511 23136 23139 28
18512 23136 23140 28
18513 23141 23142 28
18514 23141 23143 28
18515 23141 23144 28
18516 23141 23145 28
18517 23146 23147 28
18518 23146 23148 28
18519 23146 23149 28
18520 23146 23150 28
18521 23151 23152 28
18522 23151 23153 28
18523 23151 23154 28
18524 23151 23155 28
18525 23156 23157 28
18526 23156 23158 28
18527 23156 23159 28
18528 23156 23160 28
18529 23161 23162 28
18530 23161 23163 28
18531 23161 23164 28
18532 23161 23165 28
18533 23166 23167 28
18534 23166 23168 28
18535 23166 23169 28
18536 23166 23170 28
18537 23171 23172 28
18538 23171 23173 28
18539 23171 23174 28
18540 23171 23175 28
18541 23176 23177 28
18542 23176 23178 28
18543 23176 23179 28
18544 23176 23180 28
18545 23181 23182 28
18546 23181 23183 28
18547 23181 23184 28
18548 23181 23185 28
18549 23186 23187 28
18550 23186 23188 28
18551 23186 23189 28
18552 23186 23190 28
18553 23191 23192 28
18554 23191 23193 28
18555 23191 23194 28
18556 23191 23195 28
18557 23196 23197 28
18558 23196 23198 28
18559 23196 23199 28
18560 23196 23200 28
18561 23201 23202 28
18562 23201 23203 28
18563 23201 23204 28
18564 23201 23205 28
18565 23206 23207 28
18566 23206 23208 28
18567 23206 23209 28
18568 23206 23210 28
18569 23211 23212 28
18570 23211 23213 28
18571 23211 23214 28
18572 23211 23215 28
18573 23216 23217 28
18574 23216 23218 28
18575 23216 23219 28
18576 23216 23220 28
18577 23221 23222 28
18578 23221 23223 28
18579 23221 23224 28
18580 23221 23225 28
18581 23226 23227 28
18582 23226 23228 28
18583 23226 23229 28
18584 23226 23230 28
18585 23231 23232 28
18586 23231 23233 28
18587 23231 23234 28
18588 23231 23235 28
18589 23236 23237 28
18590 23236 23238 28
18591 23236 23239 28
18592 23236 23240 28
18593 23241 23242 28
18594 23241 23243 28
18595 23241 23244 28
18596 23241 23245 28
18597 23246 23247 28
18598 23246 23248 28
18599 23246 23249 28
18600 23246 23250 28
18601 23251 23252 28
18602 23251 23253 28
18603 23251 23254 28
18604 23251 23255 28
18605 23256 23257 28
18606 23256 23258 28
18607 23256 23259 28
18608 23256 23260 28
18609 23261 23262 28
18610 23261 23263 28
18611 23261 23264 28
18612 23261 23265 28
18613 23266 23267 28
18614 23266 23268 28
18615 23266 23269 28
18616 23266 23270 28
18617 23271 23272 28
18618 23271 23273 28
18619 23271 23274 28
18620 23271 23275 28
18621 23276 23277 28
18622 23276 23278 28
18623 23276 23279 28
18624 23276 23280 28
18625 23281 23282 28
18626 23281 23283 28
18627 23281 23284 28
18628 23281 23285 28
18629 23286 23287 28
18630 23286 23288 28
18631 23286 23289 28
18632 23286 23290 28
18633 23291 23292 28
18634 23291 23293 28
18635 23291 23294 28
18636 23291 23295 28
18637 23296 23297 28
18638 23296 23298 28
18639 23296 23299 28
18640 23296 23300 28
18641 23301 23302 28
18642 23301 23303 28
18643 23301 23304 28
18644 23301 23305 28
18645 23306 23307 28
18646 23306 23308 28
18647 23306 23309 28
18648 23306 23310 28
18649 23311 23312 28
18650 23311 23313 28
18651 23311 23314 28
18652 23311 23315 28
18653 23316 23317 28
18654 23316 23318 28
18655 23316 23319 28
18656 23316 23320 28
18657 23321 23322 28
18658 23321 23323 28
18659 23321 23324 28
18660 23321 23325 28
18661 23326 23327 28
18662 23326 23328 28
18663 23326 23329 28
18664 23326 23330 28
18665 23331 23332 28
18666 23331 23333 28
18667 23331 23334 28
18668 23331 23335 28
18669 23336 23337 28
18670 23336 23338 28
18671 23336 23339 28
18672 23336 23340 28
18673 23341 23342 28
18674 23341 23343 28
18675 23341 23344 28
18676 23341 23345 28
18677 23346 23347 28
18678 23346 23348 28
18679 23346 23349 28
18680 23346 23350 28
18681 23351 23352 28
18682 23351 23353 28
18683 23351 23354 28
18684 23351 23355 28
18685 23356 23357 28
18686 23356 23358 28
18687 23356 23359 28
18688 23356 23360 28
18689 23361 23362 28
18690 23361 23363 28
18691 23361 23364 28
18692 23361 23365 28
18693 23366 23367 28
18694 23366 23368 28
18695 23366 23369 28
18696 23366 23370 28
18697 23371 23372 28
18698 23371 23373 28
18699 23371 23374 28
18700 23371 23375 28
18701 23376 23377 28
18702 23376 23378 28
18703 23376 23379 28
18704 23376 23380 28
18705 23381 23382 28
18706 23381 23383 28
18707 23381 23384 28
18708 23381 23385 28
18709 23386 23387 28
18710 23386 23388 28
18711 23386 23389 28
18712 23386 23390 28
18713 23391 23392 28
18714 23391 23393 28
18715 23391 23394 28
18716 23391 23395 28
18717 23396 23397 28
18718 23396 23398 28
18719 23396 23399 28
18720 23396 23400 28
18721 23401 23402 28
18722 23401 23403 28
18723 23401 23404 28
18724 23401 23405 28
18725 23406 23407 28
18726 23406 23408 28
18727 23406 23409 28
18728 23406 23410 28
18729 23411 23412 28
18730 23411 23413 28
18731 23411 23414 28
18732 23411 23415 28
18733 23416 23417 28
18734 23416 23418 28
18735 23416 23419 28
18736 23416 23420 28
18737 23421 23422 28
18738 23421 23423 28
18739 23421 23424 28
18740 23421 23425 28
18741 23426 23427 28
18742 23426 23428 28
18743 23426 23429 28
18744 23426 23430 28
18745 23431 23432 28
18746 23431 23433 28
18747 23431 23434 28
18748 23431 23435 28
18749 23436 23437 28
18750 23436 23438 28
18751 23436 23439 28
18752 23436 23440 28
18753 23441 23442 28
18754 23441 23443 28
18755 23441 23444 28
18756 23441 23445 28
18757 23446 23447 28
18758 23446 23448 28
18759 23446 23449 28
18760 23446 23450 28
18761 23451 23452 28
18762 23451 23453 28
18763 23451 23454 28
18764 23451 23455 28
18765 23456 23457 28
18766 23456 23458 28
18767 23456 23459 28
18768 23456 23460 28
18769 23461 23462 28
18770 23461 23463 28
18771 23461 23464 28
18772 23461 23465 28
18773 23466 23467 28
18774 23466 23468 28
18775 23466 23469 28
18776 23466 23470 28
18777 23471 23472 28
18778 23471 23473 28
18779 23471 23474 28
18780 23471 23475 28
18781 23476 23477 28
18782 23476 23478 28
18783 23476 23479 28
18784 23476 23480 28
18785 23481 23482 28
18786 23481 23483 28
18787 23481 23484 28
18788 23481 23485 28
18789 23486 23487 28
18790 23486 23488 28
18791 23486 23489 28
18792 23486 23490 28
18793 23491 23492 28
18794 23491 23493 28
18795 23491 23494 28
18796 23491 23495 28
18797 23496 23497 28
18798 23496 23498 28
18799 23496 23499 28
18800 23496 23500 28
18801 23501 23502 28
18802 23501 23503 28
18803 23501 23504 28
18804 23501 23505 28
18805 23506 23507 28
18806 23506 23508 28
18807 23506 23509 28
18808 23506 23510 28
18809 23511 23512 28
18810 23511 23513 28
18811 23511 23514 28
18812 23511 23515 28
18813 23516 23517 28
18814 23516 23518 28
18815 23516 23519 28
18816 23516 23520 28
18817 23521 23522 28
18818 23521 23523 28
18819 23521 23524 28
18820 23521 23525 28
18821 23526 23527 28
18822 23526 23528 28
18823 23526 23529 28
18824 23526 23530 28
18825 23531 23532 28
18826 23531 23533 28
18827 23531 23534 28
18828 23531 23535 28
18829 23536 23537 28
18830 23536 23538 28
18831 23536 23539 28
18832 23536 23540 28
18833 23541 23542 28
18834 23541 23543 28
18835 23541 23544 28
18836 23541 23545 28
18837 23546 23547 28
18838 23546 23548 28
18839 23546 23549 28
18840 23546 23550 28
18841 23551 23552 28
18842 23551 23553 28
18843 23551 23554 28
18844 23551 23555 28
18845 23556 23557 28
18846 23556 23558 28
18847 23556 23559 28
18848 23556 23560 28
18849 23561 23562 28
18850 23561 23563 28
18851 23561 23564 28
18852 23561 23565 28
18853 23566 23567 28
18854 23566 23568 28
18855 23566 23569 28
18856 23566 23570 28
18857 23571 23572 28
18858 23571 23573 28
18859 23571 23574 28
18860 23571 23575 28
18861 23576 23577 28
18862 23576 23578 28
18863 23576 23579 28
18864 23576 23580 28
18865 23581 23582 28
18866 23581 23583 28
18867 23581 23584 28
18868 23581 23585 28
18869 23586 23587 28
18870 23586 23588 28
18871 23586 23589 28
18872 23586 23590 28
18873 23591 23592 28
18874 23591 23593 28
18875 23591 23594 28
18876 23591 23595 28
18877 23596 23597 28
18878 23596 23598 28
18879 23596 23599 28
18880 23596 23600 28
18881 23601 23602 28
18882 23601 23603 28
18883 23601 23604 28
18884 23601 23605 28
18885 23606 23607 28
18886 23606 23608 28
18887 23606 23609 28
18888 23606 23610 28
18889 23611 23612 28
18890 23611 23613 28
18891 23611 23614 28
18892 23611 23615 28
18893 23616 23617 28
18894 23616 23618 28
18895 23616 23619 28
18896 23616 23620 28
18897 23621 23622 28
18898 23621 23623 28
18899 23621 23624 28
18900 23621 23625 28
18901 23626 23627 28
18902 23626 23628 28
18903 23626 23629 28
18904 23626 23630 28
18905 23631 23632 28
18906 23631 23633 28
18907 23631 23634 28
18908 23631 23635 28
18909 23636 23637 28
18910 23636 23638 28
18911 23636 23639 28
18912 23636 23640 28
18913 23641 23642 28
18914 23641 23643 28
18915 23641 23644 28
18916 23641 23645 28
18917 23646 23647 28
18918 23646 23648 28
18919 23646 23649 28
18920 23646 23650 28
18921 23651 23652 28
18922 23651 23653 28
18923 23651 23654 28
18924 23651 23655 28
18925 23656 23657 28
18926 23656 23658 28
18927 23656 23659 28
18928 23656 23660 28
18929 23661 23662 28
18930 23661 23663 28
18931 23661 23664 28
18932 23661 23665 28
18933 23666 23667 28
18934 23666 23668 28
18935 23666 23669 28
18936 23666 23670 28
18937 23671 23672 28
18938 23671 23673 28
18939 23671 23674 28
18940 23671 23675 28
18941 23676 23677 28
18942 23676 23678 28
18943 23676 23679 28
18944 23676 23680 28
18945 23681 23682 28
18946 23681 23683 28
18947 23681 23684 28
18948 23681 23685 28
18949 23686 23687 28
18950 23686 23688 28
18951 23686 23689 28
18952 23686 23690 28
18953 23691 23692 28
18954 23691 23693 28
18955 23691 23694 28
18956 23691 23695 28
18957 23696 23697 28
18958 23696 23698 28
18959 23696 23699 28
18960 23696 23700 28
18961 23701 23702 28
18962 23701 23703 28
18963 23701 23704 28
18964 23701 23705 28
18965 23706 23707 28
18966 23706 23708 28
18967 23706 23709 28
18968 23706 23710 28
18969 23711 23712 28
18970 23711 23713 28
18971 23711 23714 28
18972 23711 23715 28
18973 23716 23717 28
18974 23716 23718 28
18975 23716 23719 28
18976 23716 23720 28
18977 23721 23722 28
18978 23721 23723 28
18979 23721 23724 28
18980 23721 23725 28
18981 23726 23727 28
18982 23726 23728 28
18983 23726 23729 28
18984 23726 23730 28
18985 23731 23732 28
18986 23731 23733 28
18987 23731 23734 28
18988 23731 23735 28
18989 23736 23737 28
18990 23736 23738 28
18991 23736 23739 28
18992 23736 23740 28
18993 23741 23742 28
18994 23741 23743 28
18995 23741 23744 28
18996 23741 23745 28
18997 23746 23747 28
18998 23746 23748 28
18999 23746 23749 28
19000 23746 23750 28
19001 23751 23752 28
19002 23751 23753 28
19003 23751 23754 28
19004 23751 23755 28
19005 23756 23757 28
19006 23756 23758 28
19007 23756 23759 28
19008 23756 23760 28
19009 23761 23762 28
19010 23761 23763 28
19011 23761 23764 28
19012 23761 23765 28
19013 23766 23767 28
19014 23766 23768 28
19015 23766 23769 28
19016 23766 23770 28
19017 23771 23772 28
19018 23771 23773 28
19019 23771 23774 28
19020 23771 23775 28
19021 23776 23777 28
19022 23776 23778 28
19023 23776 23779 28
19024 23776 23780 28
19025 23781 23782 28
19026 23781 23783 28
19027 23781 23784 28
19028 23781 23785 28
19029 23786 23787 28
19030 23786 23788 28
19031 23786 23789 28
19032 23786 23790 28
19033 23791 23792 28
19034 23791 23793 28
19035 23791 23794 28
19036 23791 23795 28
19037 23796 23797 28
19038 23796 23798 28
19039 23796 23799 28
19040 23796 23800 28
19041 23801 23802 28
19042 23801 23803 28
19043 23801 23804 28
19044 23801 23805 28
19045 23806 23807 28
19046 23806 23808 28
19047 23806 23809 28
19048 23806 23810 28
19049 23811 23812 28
19050 23811 23813 28
19051 23811 23814 28
19052 23811 23815 28
19053 23816 23817 28
19054 23816 23818 28
19055 23816 23819 28
19056 23816 23820 28
19057 23821 23822 28
19058 23821 23823 28
19059 23821 23824 28
19060 23821 23825 28
19061 23826 23827 28
19062 23826 23828 28
19063 23826 23829 28
19064 23826 23830 28
19065 23831 23832 28
19066 23831 23833 28
19067 23831 23834 28
19068 23831 23835 28
19069 23836 23837 28
19070 23836 23838 28
19071 23836 23839 28
19072 23836 23840 28
19073 23841 23842 28
19074 23841 23843 28
19075 23841 23844 28
19076 23841 23845 28
19077 23846 23847 28
19078 23846 23848 28
19079 23846 23849 28
19080 23846 23850 28
19081 23851 23852 28
19082 23851 23853 28
19083 23851 23854 28
19084 23851 23855 28
19085 23856 23857 28
19086 23856 23858 28
19087 23856 23859 28
19088 23856 23860 28
19089 23861 23862 28
19090 23861 23863 28
19091 23861 23864 28
19092 23861 23865 28
19093 23866 23867 28
19094 23866 23868 28
19095 23866 23869 28
19096 23866 23870 28
19097 23871 23872 28
19098 23871 23873 28
19099 23871 23874 28
19100 23871 23875 28
19101 23876 23877 28
19102 23876 23878 28
19103 23876 23879 28
19104 23876 23880 28
19105 23881 23882 28
19106 23881 23883 28
19107 23881 23884 28
19108 23881 23885 28
19109 23886 23887 28
19110 23886 23888 28
19111 23886 23889 28
19112 23886 23890 28
19113 23891 23892 28
19114 23891 23893 28
19115 23891 23894 28
19116 23891 23895 28
19117 23896 23897 28
19118 23896 23898 28
19119 23896 23899 28
19120 23896 23900 28
19121 23901 23902 28
19122 23901 23903 28
19123 23901 23904 28
19124 23901 23905 28
19125 23906 23907 28
19126 23906 23908 28
19127 23906 23909 28
19128 23906 23910 28
19129 23911 23912 28
19130 23911 23913 28
19131 23911 23914 28
19132 23911 23915 28
19133 23916 23917 28
19134 23916 23918 28
19135 23916 23919 28
19136 23916 23920 28
19137 23921 23922 28
19138 23921 23923 28
19139 23921 23924 28
19140 23921 23925 28
19141 23926 23927 28
19142 23926 23928 28
19143 23926 23929 28
19144 23926 23930 28
19145 23931 23932 28
19146 23931 23933 28
19147 23931 23934 28
19148 23931 23935 28
19149 23936 23937 28
19150 23936 23938 28
19151 23936 23939 28
19152 23936 23940 28
19153 23941 23942 28
19154 23941 23943 28
19155 23941 23944 28
19156 23941 23945 28
19157 23946 23947 28
19158 23946 23948 28
19159 23946 23949 28
19160 23946 23950 28
19161 23951 23952 28
19162 23951 23953 28
19163 23951 23954 28
19164 23951 23955 28
19165 23956 23957 28
19166 23956 23958 28
19167 23956 23959 28
19168 23956 23960 28
19169 23961 23962 28
19170 23961 23963 28
19171 23961 23964 28
19172 23961 23965 28
19173 23966 23967 28
19174 23966 23968 28
19175 23966 23969 28
19176 23966 23970 28
19177 23971 23972 28
19178 23971 23973 28
19179 23971 23974 28
19180 23971 23975 28
19181 23976 23977 28
19182 23976 23978 28
19183 23976 23979 28
19184 23976 23980 28
19185 23981 23982 28
19186 23981 23983 28
19187 23981 23984 28
19188 23981 23985 28
19189 23986 23987 28
19190 23986 23988 28
19191 23986 23989 28
19192 23986 23990 28
19193 23991 23992 28
19194 23991 23993 28
19195 23991 23994 28
19196 23991 23995 28
19197 23996 23997 28
19198 23996 23998 28
19199 23996 23999 28
19200 23996 24000 28
19201 24001 24002 28
19202 24001 24003 28
19203 24001 24004 28
19204 24001 24005 28
19205 24006 24007 28
19206 24006 24008 28
19207 24006 24009 28
19208 24006 24010 28
19209 24011 24012 28
19210 24011 24013 28
19211 24011 24014 28
19212 24011 24015 28
19213 24016 24017 28
19214 24016 24018 28
19215 24016 24019 28
19216 24016 24020 28
19217 24021 24022 28
19218 24021 24023 28
19219 24021 24024 28
19220 24021 24025 28
19221 24026 24027 28
19222 24026 24028 28
19223 24026 24029 28
19224 24026 24030 28
19225 24031 24032 28
19226 24031 24033 28
19227 24031 24034 28
19228 24031 24035 28
19229 24036 24037 28
19230 24036 24038 28
19231 24036 24039 28
19232 24036 24040 28
19233 24041 24042 28
19234 24041 24043 28
19235 24041 24044 28
19236 24041 24045 28
19237 24046 24047 28
19238 24046 24048 28
19239 24046 24049 28
19240 24046 24050 28
19241 24051 24052 28
19242 24051 24053 28
19243 24051 24054 28
19244 24051 24055 28
19245 24056 24057 28
19246 24056 24058 28
19247 24056 24059 28
19248 24056 24060 28
19249 24061 24062 28
19250 24061 24063 28
19251 24061 24064 28
19252 24061 24065 28
19253 24066 24067 28
19254 24066 24068 28
19255 24066 24069 28
19256 24066 24070 28
19257 24071 24072 28
19258 24071 24073 28
19259 24071 24074 28
19260 24071 24075 28
19261 24076 24077 28
19262 24076 24078 28
19263 24076 24079 28
19264 24076 24080 28
19265 24081 24082 28
19266 24081 24083 28
19267 24081 24084 28
19268 24081 24085 28
19269 24086 24087 28
19270 24086 24088 28
19271 24086 24089 28
19272 24086 24090 28
19273 24091 24092 28
19274 24091 24093 28
19275 24091 24094 28
19276 24091 24095 28
19277 24096 24097 28
19278 24096 24098 28
19279 24096 24099 28
19280 24096 24100 28
19281 24101 24102 28
19282 24101 24103 28
19283 24101 24104 28
19284 24101 24105 28
19285 24106 24107 28
19286 24106 24108 28
19287 24106 24109 28
19288 24106 24110 28
19289 24111 24112 28
19290 24111 24113 28
19291 24111 24114 28
19292 24111 24115 28
19293 24116 24117 28
19294 24116 24118 28
19295 24116 24119 28
19296 24116 24120 28
19297 24121 24122 28
19298 24121 24123 28
19299 24121 24124 28
19300 24121 24125 28
19301 24126 24127 28
19302 24126 24128 28
19303 24126 24129 28
19304 24126 24130 28
19305 24131 24132 28
19306 24131 24133 28
19307 24131 24134 28
19308 24131 24135 28
19309 24136 24137 28
19310 24136 24138 28
19311 24136 24139 28
19312 24136 24140 28
19313 24141 24142 28
19314 24141 24143 28
19315 24141 24144 28
19316 24141 24145 28
19317 24146 24147 28
19318 24146 24148 28
19319 24146 24149 28
19320 24146 24150 28
19321 24151 24152 28
19322 24151 24153 28
19323 24151 24154 28
19324 24151 24155 28
19325 24156 24157 28
19326 24156 24158 28
19327 24156 24159 28
19328 24156 24160 28
19329 24161 24162 28
19330 24161 24163 28
19331 24161 24164 28
19332 24161 24165 28
19333 24166 24167 28
19334 24166 24168 28
19335 24166 24169 28
19336 24166 24170 28
19337 24171 24172 28
19338 24171 24173 28
19339 24171 24174 28
19340 24171 24175 28
19341 24176 24177 28
19342 24176 24178 28
19343 24176 24179 28
19344 24176 24180 28
19345 24181 24182 28
19346 24181 24183 28
19347 24181 24184 28
19348 24181 24185 28
19349 24186 24187 28
19350 24186 24188 28
19351 24186 24189 28
19352 24186 24190 28
19353 24191 24192 28
19354 24191 24193 28
19355 24191 24194 28
19356 24191 24195 28
19357 24196 24197 28
19358 24196 24198 28
19359 24196 24199 28
19360 24196 24200 28
19361 24201 24202 28
19362 24201 24203 28
19363 24201 24204 28
19364 24201 24205 28
19365 24206 24207 28
19366 24206 24208 28
19367 24206 24209 28
19368 24206 24210 28
19369 24211 24212 28
19370 24211 24213 28
19371 24211 24214 28
19372 24211 24215 28
19373 24216 24217 28
19374 24216 24218 28
19375 24216 24219 28
19376 24216 24220 28
19377 24221 24222 28
19378 24221 24223 28
19379 24221 24224 28
19380 24221 24225 28
19381 24226 24227 28
19382 24226 24228 28
19383 24226 24229 28
19384 24226 24230 28
19385 24231 24232 28
19386 24231 24233 28
19387 24231 24234 28
19388 24231 24235 28
19389 24236 24237 28
19390 24236 24238 28
19391 24236 24239 28
19392 24236 24240 28
19393 24241 24242 28
19394 24241 24243 28
19395 24241 24244 28
19396 24241 24245 28
19397 24246 24247 28
19398 24246 24248 28
19399 24246 24249 28
19400 24246 24250 28
19401 24251 24252 28
19402 24251 24253 28
19403 24251 24254 28
19404 24251 24255 28
19405 24256 24257 28
19406 24256 24258 28
19407 24256 24259 28
19408 24256 24260 28
19409 24261 24262 28
19410 24261 24263 28
19411 24261 24264 28
19412 24261 24265 28
19413 24266 24267 28
19414 24266 24268 28
19415 24266 24269 28
19416 24266 24270 28
19417 24271 24272 28
19418 24271 24273 28
19419 24271 24274 28
19420 24271 24275 28
19421 24276 24277 28
19422 24276 24278 28
19423 24276 24279 28
19424 24276 24280 28
19425 24281 24282 28
19426 24281 24283 28
19427 24281 24284 28
19428 24281 24285 28
19429 24286 24287 28
19430 24286 24288 28
19431 24286 24289 28
19432 24286 24290 28
19433 24291 24292 28
19434 24291 24293 28
19435 24291 24294 28
19436 24291 24295 28
19437 24296 24297 28
19438 24296 24298 28
19439 24296 24299 28
19440 24296 24300 28
19441 24301 24302 28
19442 24301 24303 28
19443 24301 24304 28
19444 24301 24305 28
19445 24306 24307 28
19446 24306 24308 28
19447 24306 24309 28
19448 24306 24310 28
19449 24311 24312 28
19450 24311 24313 28
19451 24311 24314 28
19452 24311 24315 28
19453 24316 24317 28
19454 24316 24318 28
19455 24316 24319 28
19456 24316 24320 28
19457 24321 24322 28
19458 24321 24323 28
19459 24321 24324 28
19460 24321 24325 28
19461 24326 24327 28
19462 24326 24328 28
19463 24326 24329 28
19464 24326 24330 28
19465 24331 24332 28
19466 24331 24333 28
19467 24331 24334 28
19468 24331 24335 28
19469 24336 24337 28
19470 24336 24338 28
19471 24336 24339 28
19472 24336 24340 28
19473 24341 24342 28
19474 24341 24343 28
19475 24341 24344 28
19476 24341 24345 28
19477 24346 24347 28
19478 24346 24348 28
19479 24346 24349 28
19480 24346 24350 28
19481 24351 24352 28
19482 24351 24353 28
19483 24351 24354 28
19484 24351 24355 28
19485 24356 24357 28
19486 24356 24358 28
19487 24356 24359 28
19488 24356 24360 28
19489 24361 24362 28
19490 24361 24363 28
19491 24361 24364 28
19492 24361 24365 28
19493 24366 24367 28
19494 24366 24368 28
19495 24366 24369 28
19496 24366 24370 28
19497 24371 24372 28
19498 24371 24373 28
19499 24371 24374 28
19500 24371 24375 28
19501 24376 24377 28
19502 24376 24378 28
19503 24376 24379 28
19504 24376 24380 28
19505 24381 24382 28
19506 24381 24383 28
19507 24381 24384 28
19508 24381 24385 28
19509 24386 24387 28
19510 24386 24388 28
19511 24386 24389 28
19512 24386 24390 28
19513 24391 24392 28
19514 24391 24393 28
19515 24391 24394 28
19516 24391 24395 28
19517 24396 24397 28
19518 24396 24398 28
19519 24396 24399 28
19520 24396 24400 28
19521 24401 24402 28
19522 24401 24403 28
19523 24401 24404 28
19524 24401 24405 28
19525 24406 24407 28
19526 24406 24408 28
19527 24406 24409 28
19528 24406 24410 28
19529 24411 24412 28
19530 24411 24413 28
19531 24411 24414 28
19532 24411 24415 28
19533 24416 24417 28
19534 24416 24418 28
19535 24416 24419 28
19536 24416 24420 28
19537 24421 24422 28
19538 24421 24423 28
19539 24421 24424 28
19540 24421 24425 28
19541 24426 24427 28
19542 24426 24428 28
19543 24426 24429 28
19544 24426 24430 28
19545 24431 24432 28
19546 24431 24433 28
19547 24431 24434 28
19548 24431 24435 28
19549 24436 24437 28
19550 24436 24438 28
19551 24436 24439 28
19552 24436 24440 28
19553 24441 24442 28
19554 24441 24443 28
19555 24441 24444 28
19556 24441 24445 28
19557 24446 24447 28
19558 24446 24448 28
19559 24446 24449 28
19560 24446 24450 28
19561 24451 24452 28
19562 24451 24453 28
19563 24451 24454 28
19564 24451 24455 28
19565 24456 24457 28
19566 24456 24458 28
19567 24456 24459 28
19568 24456 24460 28
19569 24461 24462 28
19570 24461 24463 28
19571 24461 24464 28
19572 24461 24465 28
19573 24466 24467 28
19574 24466 24468 28
19575 24466 24469 28
19576 24466 24470 28
19577 24471 24472 28
19578 24471 24473 28
19579 24471 24474 28
19580 24471 24475 28
19581 24476 24477 28
19582 24476 24478 28
19583 24476 24479 28
19584 24476 24480 28
19585 24481 24482 28
19586 24481 24483 28
19587 24481 24484 28
19588 24481 24485 28
19589 24486 24487 28
19590 24486 24488 28
19591 24486 24489 28
19592 24486 24490 28
19593 24491 24492 28
19594 24491 24493 28
19595 24491 24494 28
19596 24491 24495 28
19597 24496 24497 28
19598 24496 24498 28
19599 24496 24499 28
19600 24496 24500 28
19601 24501 24502 28
19602 24501 24503 28
19603 24501 24504 28
19604 24501 24505 28
19605 24506 24507 28
19606 24506 24508 28
19607 24506 24509 28
19608 24506 24510 28
19609 24511 24512 28
19610 24511 24513 28
19611 24511 24514 28
19612 24511 24515 28
19613 24516 24517 28
19614 24516 24518 28
19615 24516 24519 28
19616 24516 24520 28
19617 24521 24522 28
19618 24521 24523 28
19619 24521 24524 28
19620 24521 24525 28
19621 24526 24527 28
19622 24526 24528 28
19623 24526 24529 28
19624 24526 24530 28
19625 24531 24532 28
19626 24531 24533 28
19627 24531 24534 28
19628 24531 24535 28
19629 24536 24537 28
19630 24536 24538 28
19631 24536 24539 28
19632 24536 24540 28
19633 24541 24542 28
19634 24541 24543 28
19635 24541 24544 28
19636 24541 24545 28
19637 24546 24547 28
19638 24546 24548 28
19639 24546 24549 28
19640 24546 24550 28
19641 24551 24552 28
19642 24551 24553 28
19643 24551 24554 28
19644 24551 24555 28
19645 24556 24557 28
19646 24556 24558 28
19647 24556 24559 28
19648 24556 24560 28
19649 24561 24562 28
19650 24561 24563 28
19651 24561 24564 28
19652 24561 24565 28
19653 24566 24567 28
19654 24566 24568 28
19655 24566 24569 28
19656 24566 24570 28
19657 24571 24572 28
19658 24571 24573 28
19659 24571 24574 28
19660 24571 24575 28
19661 24576 24577 28
19662 24576 24578 28
19663 24576 24579 28
19664 24576 24580 28
19665 24581 24582 28
19666 24581 24583 28
19667 24581 24584 28
19668 24581 24585 28
19669 24586 24587 28
19670 24586 24588 28
19671 24586 24589 28
19672 24586 24590 28
19673 24591 24592 28
19674 24591 24593 28
19675 24591 24594 28
19676 24591 24595 28
19677 24596 24597 28
19678 24596 24598 28
19679 24596 24599 28
19680 24596 24600 28
19681 24601 24602 28
19682 24601 24603 28
19683 24601 24604 28
19684 24601 24605 28
19685 24606 24607 28
19686 24606 24608 28
19687 24606 24609 28
19688 24606 24610 28
19689 24611 24612 28
19690 24611 24613 28
19691 24611 24614 28
19692 24611 24615 28
19693 24616 24617 28
19694 24616 24618 28
19695 24616 24619 28
19696 24616 24620 28
19697 24621 24622 28
19698 24621 24623 28
19699 24621 24624 28
19700 24621 24625 28
19701 24626 24627 28
19702 24626 24628 28
19703 24626 24629 28
19704 24626 24630 28
19705 24631 24632 28
19706 24631 24633 28
19707 24631 24634 28
19708 24631 24635 28
19709 24636 24637 28
19710 24636 24638 28
19711 24636 24639 28
19712 24636 24640 28
19713 24641 24642 28
19714 24641 24643 28
19715 24641 24644 28
19716 24641 24645 28
19717 24646 24647 28
19718 24646 24648 28
19719 24646 24649 28
19720 24646 24650 28
19721 24651 24652 28
19722 24651 24653 28
19723 24651 24654 28
19724 24651 24655 28
19725 24656 24657 28
19726 24656 24658 28
19727 24656 24659 28
19728 24656 24660 28
19729 24661 24662 28
19730 24661 24663 28
19731 24661 24664 28
19732 24661 24665 28
19733 24666 24667 28
19734 24666 24668 28
19735 24666 24669 28
19736 24666 24670 28
19737 24671 24672 28
19738 24671 24673 28
19739 24671 24674 28
19740 24671 24675 28
19741 24676 24677 28
19742 24676 24678 28
19743 24676 24679 28
19744 24676 24680 28
19745 24681 24682 28
19746 24681 24683 28
19747 24681 24684 28
19748 24681 24685 28
19749 24686 24687 28
19750 24686 24688 28
19751 24686 24689 28
19752 24686 24690 28
19753 24691 24692 28
19754 24691 24693 28
19755 24691 24694 28
19756 24691 24695 28
19757 24696 24697 28
19758 24696 24698 28
19759 24696 24699 28
19760 24696 24700 28
19761 24701 24702 28
19762 24701 24703 28
19763 24701 24704 28
19764 24701 24705 28
19765 24706 24707 28
19766 24706 24708 28
19767 24706 24709 28
19768 24706 24710 28
19769 24711 24712 28
19770 24711 24713 28
19771 24711 24714 28
19772 24711 24715 28
19773 24716 24717 28
19774 24716 24718 28
19775 24716 24719 28
19776 24716 24720 28
19777 24721 24722 28
19778 24721 24723 28
19779 24721 24724 28
19780 24721 24725 28
19781 24726 24727 28
19782 24726 24728 28
19783 24726 24729 28
19784 24726 24730 28
19785 24731 24732 28
19786 24731 24733 28
19787 24731 24734 28
19788 24731 24735 28
19789 24736 24737 28
19790 24736 24738 28
19791 24736 24739 28
19792 24736 24740 28
19793 24741 24742 28
19794 24741 24743 28
19795 24741 24744 28
19796 24741 24745 28
19797 24746 24747 28
19798 24746 24748 28
19799 24746 24749 28
19800 24746 24750 28
19801 24751 24752 28
19802 24751 24753 28
19803 24751 24754 28
19804 24751 24755 28
19805 24756 24757 28
19806 24756 24758 28
19807 24756 24759 28
19808 24756 24760 28
19809 24761 24762 28
19810 24761 24763 28
19811 24761 24764 28
19812 24761 24765 28
19813 24766 24767 28
19814 24766 24768 28
19815 24766 24769 28
19816 24766 24770 28
19817 24771 24772 28
19818 24771 24773 28
19819 24771 24774 28
19820 24771 24775 28
19821 24776 24777 28
19822 24776 24778 28
19823 24776 24779 28
19824 24776 24780 28
19825 24781 24782 28
19826 24781 24783 28
19827 24781 24784 28
19828 24781 24785 28
19829 24786 24787 28
19830 24786 24788 28
19831 24786 24789 28
19832 24786 24790 28
19833 24791 24792 28
19834 24791 24793 28
19835 24791 24794 28
19836 24791 24795 28
19837 24796 24797 28
19838 24796 24798 28
19839 24796 24799 28
19840 24796 24800 28
19841 24801 24802 28
19842 24801 24803 28
19843 24801 24804 28
19844 24801 24805 28
19845 24806 24807 28
19846 24806 24808 28
19847 24806 24809 28
19848 24806 24810 28
19849 24811 24812 28
19850 24811 24813 28
19851 24811 24814 28
19852 24811 24815 28
19853 24816 24817 28
19854 24816 24818 28
19855 24816 24819 28
19856 24816 24820 28
19857 24821 24822 28
19858 24821 24823 28
19859 24821 24824 28
19860 24821 24825 28
19861 24826 24827 28
19862 24826 24828 28
19863 24826 24829 28
19864 24826 24830 28
19865 24831 24832 28
19866 24831 24833 28
19867 24831 24834 28
19868 24831 24835 28
19869 24836 24837 28
19870 24836 24838 28
19871 24836 24839 28
19872 24836 24840 28
19873 24841 24842 28
19874 24841 24843 28
19875 24841 24844 28
19876 24841 24845 28
19877 24846 24847 28
19878 24846 24848 28
19879 24846 24849 28
19880 24846 24850 28
19881 24851 24852 28
19882 24851 24853 28
19883 24851 24854 28
19884 24851 24855 28
19885 24856 24857 28
19886 24856 24858 28
19887 24856 24859 28
19888 24856 24860 28
19889 24861 24862 28
19890 24861 24863 28
19891 24861 24864 28
19892 24861 24865 28
19893 24866 24867 28
19894 24866 24868 28
19895 24866 24869 28
19896 24866 24870 28
19897 24871 24872 28
19898 24871 24873 28
19899 24871 24874 28
19900 24871 24875 28
19901 24876 24877 28
19902 24876 24878 28
19903 24876 24879 28
19904 24876 24880 28
19905 24881 24882 28
19906 24881 24883 28
19907 24881 24884 28
19908 24881 24885 28
19909 24886 24887 28
19910 24886 24888 28
19911 24886 24889 28
19912 24886 24890 28
19913 24891 24892 28
19914 24891 24893 28
19915 24891 24894 28
19916 24891 24895 28
19917 24896 24897 28
19918 24896 24898 28
19919 24896 24899 28
19920 24896 24900 28
19921 24901 24902 28
19922 24901 24903 28
19923 24901 24904 28
19924 24901 24905 28
19925 24906 24907 28
19926 24906 24908 28
19927 24906 24909 28
19928 24906 24910 28
19929 24911 24912 28
19930 24911 24913 28
19931 24911 24914 28
19932 24911 24915 28
19933 24916 24917 28
19934 24916 24918 28
19935 24916 24919 28
19936 24916 24920 28
19937 24921 24922 28
19938 24921 24923 28
19939 24921 24924 28
19940 24921 24925 28
19941 24926 24927 28
19942 24926 24928 28
19943 24926 24929 28
19944 24926 24930 28
19945 24931 24932 28
19946 24931 24933 28
19947 24931 24934 28
19948 24931 24935 28
19949 24936 24937 28
19950 24936 24938 28
19951 24936 24939 28
19952 24936 24940 28
19953 24941 24942 28
19954 24941 24943 28
19955 24941 24944 28
19956 24941 24945 28
19957 24946 24947 28
19958 24946 24948 28
19959 24946 24949 28
19960 24946 24950 28
19961 24951 24952 28
19962 24951 24953 28
19963 24951 24954 28
19964 24951 24955 28
19965 24956 24957 28
19966 24956 24958 28
19967 24956 24959 28
19968 24956 24960 28
19969 24961 24962 28
19970 24961 24963 28
19971 24961 24964 28
19972 24961 24965 28
19973 24966 24967 28
19974 24966 24968 28
19975 24966 24969 28
19976 24966 24970 28
19977 24971 24972 28
19978 24971 24973 28
19979 24971 24974 28
19980 24971 24975 28
19981 24976 24977 28
19982 24976 24978 28
19983 24976 24979 28
19984 24976 24980 28
19985 24981 24982 28
19986 24981 24983 28
19987 24981 24984 28
19988 24981 24985 28
19989 24986 24987 28
19990 24986 24988 28
19991 24986 24989 28
19992 24986 24990 28
19993 24991 24992 28
19994 24991 24993 28
19995 24991 24994 28
19996 24991 24995 28
19997 24996 24997 28
19998 24996 24998 28
19999 24996 24999 28
20000 24996 25000 28
20001 25001 25002 28
20002 25001 25003 28
20003 25001 25004 28
20004 25001 25005 28
20005 25006 25007 28
20006 25006 25008 28
20007 25006 25009 28
20008 25006 25010 28
20009 25011 25012 28
20010 25011 25013 28
20011 25011 25014 28
20012 25011 25015 28
20013 25016 25017 28
20014 25016 25018 28
20015 25016 25019 28
20016 25016 25020 28
20017 25021 25022 28
20018 25021 25023 28
20019 25021 25024 28
20020 25021 25025 28
20021 25026 25027 28
20022 25026 25028 28
20023 25026 25029 28
20024 25026 25030 28
20025 25031 25032 28
20026 25031 25033 28
20027 25031 25034 28
20028 25031 25035 28
20029 25036 25037 28
20030 25036 25038 28
20031 25036 25039 28
20032 25036 25040 28
20033 25041 25042 28
20034 25041 25043 28
20035 25041 25044 28
20036 25041 25045 28
20037 25046 25047 28
20038 25046 25048 28
20039 25046 25049 28
20040 25046 25050 28
20041 25051 25052 28
20042 25051 25053 28
20043 25051 25054 28
20044 25051 25055 28
20045 25056 25057 28
20046 25056 25058 28
20047 25056 25059 28
20048 25056 25060 28
20049 25061 25062 28
20050 25061 25063 28
20051 25061 25064 28
20052 25061 25065 28
20053 25066 25067 28
20054 25066 25068 28
20055 25066 25069 28
20056 25066 25070 28
20057 25071 25072 28
20058 25071 25073 28
20059 25071 25074 28
20060 25071 25075 28
20061 25076 25077 28
20062 25076 25078 28
20063 25076 25079 28
20064 25076 25080 28
20065 25081 25082 28
20066 25081 25083 28
20067 25081 25084 28
20068 25081 25085 28
20069 25086 25087 28
20070 25086 25088 28
20071 25086 25089 28
20072 25086 25090 28
20073 25091 25092 28
20074 25091 25093 28
20075 25091 25094 28
20076 25091 25095 28
20077 25096 25097 28
20078 25096 25098 28
20079 25096 25099 28
20080 25096 25100 28
20081 25101 25102 28
20082 25101 25103 28
20083 25101 25104 28
20084 25101 25105 28
20085 25106 25107 28
20086 25106 25108 28
20087 25106 25109 28
20088 25106 25110 28
20089 25111 25112 28
20090 25111 25113 28
20091 25111 25114 28
20092 25111 25115 28
20093 25116 25117 28
20094 25116 25118 28
20095 25116 25119 28
20096 25116 25120 28
20097 25121 25122 28
20098 25121 25123 28
20099 25121 25124 28
20100 25121 25125 28
20101 25126 25127 28
20102 25126 25128 28
20103 25126 25129 28
20104 25126 25130 28
20105 25131 25132 28
20106 25131 25133 28
20107 25131 25134 28
20108 25131 25135 28
20109 25136 25137 28
20110 25136 25138 28
20111 25136 25139 28
20112 25136 25140 28
20113 25141 25142 28
20114 25141 25143 28
20115 25141 25144 28
20116 25141 25145 28
20117 25146 25147 28
20118 25146 25148 28
20119 25146 25149 28
20120 25146 25150 28
20121 25151 25152 28
20122 25151 25153 28
20123 25151 25154 28
20124 25151 25155 28
20125 25156 25157 28
20126 25156 25158 28
20127 25156 25159 28
20128 25156 25160 28
20129 25161 25162 28
20130 25161 25163 28
20131 25161 25164 28
20132 25161 25165 28
20133 25166 25167 28
20134 25166 25168 28
20135 25166 25169 28
20136 25166 25170 28
20137 25171 25172 28
20138 25171 25173 28
20139 25171 25174 28
20140 25171 25175 28
20141 25176 25177 28
20142 25176 25178 28
20143 25176 25179 28
20144 25176 25180 28
20145 25181 25182 28
20146 25181 25183 28
20147 25181 25184 28
20148 25181 25185 28
20149 25186 25187 28
20150 25186 25188 28
20151 25186 25189 28
20152 25186 25190 28
20153 25191 25192 28
20154 25191 25193 28
20155 25191 25194 28
20156 25191 25195 28
20157 25196 25197 28
20158 25196 25198 28
20159 25196 25199 28
20160 25196 25200 28
20161 25201 25202 28
20162 25201 25203 28
20163 25201 25204 28
20164 25201 25205 28
20165 25206 25207 28
20166 25206 25208 28
20167 25206 25209 28
20168 25206 25210 28
20169 25211 25212 28
20170 25211 25213 28
20171 25211 25214 28
20172 25211 25215 28
20173 25216 25217 28
20174 25216 25218 28
20175 25216 25219 28
20176 25216 25220 28
20177 25221 25222 28
20178 25221 25223 28
20179 25221 25224 28
20180 25221 25225 28
20181 25226 25227 28
20182 25226 25228 28
20183 25226 25229 28
20184 25226 25230 28
20185 25231 25232 28
20186 25231 25233 28
20187 25231 25234 28
20188 25231 25235 28
20189 25236 25237 28
20190 25236 25238 28
20191 25236 25239 28
20192 25236 25240 28
20193 25241 25242 28
20194 25241 25243 28
20195 25241 25244 28
20196 25241 25245 28
20197 25246 25247 28
20198 25246 25248 28
20199 25246 25249 28
20200 25246 25250 28
20201 25251 25252 28
20202 25251 25253 28
20203 25251 25254 28
20204 25251 25255 28
20205 25256 25257 28
20206 25256 25258 28
20207 25256 25259 28
20208 25256 25260 28
20209 25261 25262 28
20210 25261 25263 28
20211 25261 25264 28
20212 25261 25265 28
20213 25266 25267 28
20214 25266 25268 28
20215 25266 25269 28
20216 25266 25270 28
20217 25271 25272 28
20218 25271 25273 28
20219 25271 25274 28
20220 25271 25275 28
20221 25276 25277 28
20222 25276 25278 28
20223 25276 25279 28
20224 25276 25280 28
20225 25281 25282 28
20226 25281 25283 28
20227 25281 25284 28
20228 25281 25285 28
20229 25286 25287 28
20230 25286 25288 28
20231 25286 25289 28
20232 25286 25290 28
20233 25291 25292 28
20234 25291 25293 28
20235 25291 25294 28
20236 25291 25295 28
20237 25296 25297 28
20238 25296 25298 28
20239 25296 25299 28
20240 25296 25300 28
20241 25301 25302 28
20242 25301 25303 28
20243 25301 25304 28
20244 25301 25305 28
20245 25306 25307 28
20246 25306 25308 28
20247 25306 25309 28
20248 25306 25310 28
20249 25311 25312 28
20250 25311 25313 28
20251 25311 25314 28
20252 25311 25315 28
20253 25316 25317 28
20254 25316 25318 28
20255 25316 25319 28
20256 25316 25320 28
20257 25321 25322 28
20258 25321 25323 28
20259 25321 25324 28
20260 25321 25325 28
20261 25326 25327 28
20262 25326 25328 28
20263 25326 25329 28
20264 25326 25330 28
20265 25331 25332 28
20266 25331 25333 28
20267 25331 25334 28
20268 25331 25335 28
20269 25336 25337 28
20270 25336 25338 28
20271 25336 25339 28
20272 25336 25340 28
20273 25341 25342 28
20274 25341 25343 28
20275 25341 25344 28
20276 25341 25345 28
20277 25346 25347 28
20278 25346 25348 28
20279 25346 25349 28
20280 25346 25350 28
20281 25351 25352 28
20282 25351 25353 28
20283 25351 25354 28
20284 25351 25355 28
20285 25356 25357 28
20286 25356 25358 28
20287 25356 25359 28
20288 25356 25360 28
20289 25361 25362 28
20290 25361 25363 28
20291 25361 25364 28
20292 25361 25365 28
20293 25366 25367 28
20294 25366 25368 28
20295 25366 25369 28
20296 25366 25370 28
20297 25371 25372 28
20298 25371 25373 28
20299 25371 25374 28
20300 25371 25375 28
20301 25376 25377 28
20302 25376 25378 28
20303 25376 25379 28
20304 25376 25380 28
20305 25381 25382 28
20306 25381 25383 28
20307 25381 25384 28
20308 25381 25385 28
20309 25386 25387 28
20310 25386 25388 28
20311 25386 25389 28
20312 25386 25390 28
20313 25391 25392 28
20314 25391 25393 28
20315 25391 25394 28
20316 25391 25395 28
20317 25396 25397 28
20318 25396 25398 28
20319 25396 25399 28
20320 25396 25400 28
20321 25401 25402 28
20322 25401 25403 28
20323 25401 25404 28
20324 25401 25405 28
20325 25406 25407 28
20326 25406 25408 28
20327 25406 25409 28
20328 25406 25410 28
20329 25411 25412 28
20330 25411 25413 28
20331 25411 25414 28
20332 25411 25415 28
20333 25416 25417 28
20334 25416 25418 28
20335 25416 25419 28
20336 25416 25420 28
20337 25421 25422 28
20338 25421 25423 28
20339 25421 25424 28
20340 25421 25425 28
20341 25426 25427 28
20342 25426 25428 28
20343 25426 25429 28
20344 25426 25430 28
20345 25431 25432 28
20346 25431 25433 28
20347 25431 25434 28
20348 25431 25435 28
20349 25436 25437 28
20350 25436 25438 28
20351 25436 25439 28
20352 25436 25440 28
20353 25441 25442 28
20354 25441 25443 28
20355 25441 25444 28
20356 25441 25445 28
20357 25446 25447 28
20358 25446 25448 28
20359 25446 25449 28
20360 25446 25450 28
20361 25451 25452 28
20362 25451 25453 28
20363 25451 25454 28
20364 25451 25455 28
20365 25456 25457 28
20366 25456 25458 28
20367 25456 25459 28
20368 25456 25460 28
20369 25461 25462 28
20370 25461 25463 28
20371 25461 25464 28
20372 25461 25465 28
20373 25466 25467 28
20374 25466 25468 28
20375 25466 25469 28
20376 25466 25470 28
20377 25471 25472 28
20378 25471 25473 28
20379 25471 25474 28
20380 25471 25475 28
20381 25476 25477 28
20382 25476 25478 28
20383 25476 25479 28
20384 25476 25480 28
20385 25481 25482 28
20386 25481 25483 28
20387 25481 25484 28
20388 25481 25485 28
20389 25486 25487 28
20390 25486 25488 28
20391 25486 25489 28
20392 25486 25490 28
20393 25491 25492 28
20394 25491 25493 28
20395 25491 25494 28
20396 25491 25495 28
20397 25496 25497 28
20398 25496 25498 28
20399 25496 25499 28
20400 25496 25500 28
20401 25501 25502 28
20402 25501 25503 28
20403 25501 25504 28
20404 25501 25505 28
20405 25506 25507 28
20406 25506 25508 28
20407 25506 25509 28
20408 25506 25510 28
20409 25511 25512 28
20410 25511 25513 28
20411 25511 25514 28
20412 25511 25515 28
20413 25516 25517 28
20414 25516 25518 28
20415 25516 25519 28
20416 25516 25520 28
20417 25521 25522 28
20418 25521 25523 28
20419 25521 25524 28
20420 25521 25525 28
20421 25526 25527 28
20422 25526 25528 28
20423 25526 25529 28
20424 25526 25530 28
20425 25531 25532 28
20426 25531 25533 28
20427 25531 25534 28
20428 25531 25535 28
20429 25536 25537 28
20430 25536 25538 28
20431 25536 25539 28
20432 25536 25540 28
20433 25541 25542 28
20434 25541 25543 28
20435 25541 25544 28
20436 25541 25545 28
20437 25546 25547 28
20438 25546 25548 28
20439 25546 25549 28
20440 25546 25550 28
20441 25551 25552 28
20442 25551 25553 28
20443 25551 25554 28
20444 25551 25555 28
20445 25556 25557 28
20446 25556 25558 28
20447 25556 25559 28
20448 25556 25560 28
20449 25561 25562 28
20450 25561 25563 28
20451 25561 25564 28
20452 25561 25565 28
20453 25566 25567 28
20454 25566 25568 28
20455 25566 25569 28
20456 25566 25570 28
20457 25571 25572 28
20458 25571 25573 28
20459 25571 25574 28
20460 25571 25575 28
20461 25576 25577 28
20462 25576 25578 28
20463 25576 25579 28
20464 25576 25580 28
20465 25581 25582 28
20466 25581 25583 28
20467 25581 25584 28
20468 25581 25585 28
20469 25586 25587 28
20470 25586 25588 28
20471 25586 25589 28
20472 25586 25590 28
20473 25591 25592 28
20474 25591 25593 28
20475 25591 25594 28
20476 25591 25595 28
20477 25596 25597 28
20478 25596 25598 28
20479 25596 25599 28
20480 25596 25600 28
20481 25601 25602 28
20482 25601 25603 28
20483 25601 25604 28
20484 25601 25605 28
20485 25606 25607 28
20486 25606 25608 28
20487 25606 25609 28
20488 25606 25610 28
20489 25611 25612 28
20490 25611 25613 28
20491 25611 25614 28
20492 25611 25615 28
20493 25616 25617 28
20494 25616 25618 28
20495 25616 25619 28
20496 25616 25620 28
20497 25621 25622 28
20498 25621 25623 28
20499 25621 25624 28
20500 25621 25625 28
20501 25626 25627 28
20502 25626 25628 28
20503 25626 25629 28
20504 25626 25630 28
20505 25631 25632 28
20506 25631 25633 28
20507 25631 25634 28
20508 25631 25635 28
20509 25636 25637 28
20510 25636 25638 28
20511 25636 25639 28
20512 25636 25640 28
20513 25641 25642 28
20514 25641 25643 28
20515 25641 25644 28
20516 25641 25645 28
20517 25646 25647 28
20518 25646 25648 28
20519 25646 25649 28
20520 25646 25650 28
20521 25651 25652 28
20522 25651 25653 28
20523 25651 25654 28
20524 25651 25655 28
20525 25656 25657 28
20526 25656 25658 28
20527 25656 25659 28
20528 25656 25660 28
20529 25661 25662 28
20530 25661 25663 28
20531 25661 25664 28
20532 25661 25665 28
20533 25666 25667 28
20534 25666 25668 28
20535 25666 25669 28
20536 25666 25670 28
20537 25671 25672 28
20538 25671 25673 28
20539 25671 25674 28
20540 25671 25675 28
20541 25676 25677 28
20542 25676 25678 28
20543 25676 25679 28
20544 25676 25680 28
20545 25681 25682 28
20546 25681 25683 28
20547 25681 25684 28
20548 25681 25685 28
20549 25686 25687 28
20550 25686 25688 28
20551 25686 25689 28
20552 25686 25690 28
20553 25691 25692 28
20554 25691 25693 28
20555 25691 25694 28
20556 25691 25695 28
20557 25696 25697 28
20558 25696 25698 28
20559 25696 25699 28
20560 25696 25700 28
20561 25701 25702 28
20562 25701 25703 28
20563 25701 25704 28
20564 25701 25705 28
20565 25706 25707 28
20566 25706 25708 28
20567 25706 25709 28
20568 25706 25710 28
20569 25711 25712 28
20570 25711 25713 28
20571 25711 25714 28
20572 25711 25715 28
20573 25716 25717 28
20574 25716 25718 28
20575 25716 25719 28
20576 25716 25720 28
20577 25721 25722 28
20578 25721 25723 28
20579 25721 25724 28
20580 25721 25725 28
20581 25726 25727 28
20582 25726 25728 28
20583 25726 25729 28
20584 25726 25730 28
20585 25731 25732 28
20586 25731 25733 28
20587 25731 25734 28
20588 25731 25735 28
20589 25736 25737 28
20590 25736 25738 28
20591 25736 25739 28
20592 25736 25740 28
20593 25741 25742 28
20594 25741 25743 28
20595 25741 25744 28
20596 25741 25745 28
20597 25746 25747 28
20598 25746 25748 28
20599 25746 25749 28
20600 25746 25750 28
20601 25751 25752 28
20602 25751 25753 28
20603 25751 25754 28
20604 25751 25755 28
20605 25756 25757 28
20606 25756 25758 28
20607 25756 25759 28
20608 25756 25760 28
20609 25761 25762 28
20610 25761 25763 28
20611 25761 25764 28
20612 25761 25765 28
20613 25766 25767 28
20614 25766 25768 28
20615 25766 25769 28
20616 25766 25770 28
20617 25771 25772 28
20618 25771 25773 28
20619 25771 25774 28
20620 25771 25775 28
20621 25776 25777 28
20622 25776 25778 28
20623 25776 25779 28
20624 25776 25780 28
20625 25781 25782 28
20626 25781 25783 28
20627 25781 25784 28
20628 25781 25785 28
20629 25786 25787 28
20630 25786 25788 28
20631 25786 25789 28
20632 25786 25790 28
20633 25791 25792 28
20634 25791 25793 28
20635 25791 25794 28
20636 25791 25795 28
20637 25796 25797 28
20638 25796 25798 28
20639 25796 25799 28
20640 25796 25800 28
20641 25801 25802 28
20642 25801 25803 28
20643 25801 25804 28
20644 25801 25805 28
20645 25806 25807 28
20646 25806 25808 28
20647 25806 25809 28
20648 25806 25810 28
20649 25811 25812 28
20650 25811 25813 28
20651 25811 25814 28
20652 25811 25815 28
20653 25816 25817 28
20654 25816 25818 28
20655 25816 25819 28
20656 25816 25820 28
20657 25821 25822 28
20658 25821 25823 28
20659 25821 25824 28
20660 25821 25825 28
20661 25826 25827 28
20662 25826 25828 28
20663 25826 25829 28
20664 25826 25830 28
20665 25831 25832 28
20666 25831 25833 28
20667 25831 25834 28
20668 25831 25835 28
20669 25836 25837 28
20670 25836 25838 28
20671 25836 25839 28
20672 25836 25840 28
20673 25841 25842 28
20674 25841 25843 28
20675 25841 25844 28
20676 25841 25845 28
20677 25846 25847 28
20678 25846 25848 28
20679 25846 25849 28
20680 25846 25850 28
20681 25851 25852 28
20682 25851 25853 28
20683 25851 25854 28
20684 25851 25855 28
20685 25856 25857 28
20686 25856 25858 28
20687 25856 25859 28
20688 25856 25860 28
20689 25861 25862 28
20690 25861 25863 28
20691 25861 25864 28
20692 25861 25865 28
20693 25866 25867 28
20694 25866 25868 28
20695 25866 25869 28
20696 25866 25870 28
20697 25871 25872 28
20698 25871 25873 28
20699 25871 25874 28
20700 25871 25875 28
20701 25876 25877 28
20702 25876 25878 28
20703 25876 25879 28
20704 25876 25880 28
20705 25881 25882 28
20706 25881 25883 28
20707 25881 25884 28
20708 25881 25885 28
20709 25886 25887 28
20710 25886 25888 28
20711 25886 25889 28
20712 25886 25890 28
20713 25891 25892 28
20714 25891 25893 28
20715 25891 25894 28
20716 25891 25895 28
20717 25896 25897 28
20718 25896 25898 28
20719 25896 25899 28
20720 25896 25900 28
20721 25901 25902 28
20722 25901 25903 28
20723 25901 25904 28
20724 25901 25905 28
20725 25906 25907 28
20726 25906 25908 28
20727 25906 25909 28
20728 25906 25910 28
20729 25911 25912 28
20730 25911 25913 28
20731 25911 25914 28
20732 25911 25915 28
20733 25916 25917 28
20734 25916 25918 28
20735 25916 25919 28
20736 25916 25920 28
20737 25921 25922 28
20738 25921 25923 28
20739 25921 25924 28
20740 25921 25925 28
20741 25926 25927 28
20742 25926 25928 28
20743 25926 25929 28
20744 25926 25930 28
20745 25931 25932 28
20746 25931 25933 28
20747 25931 25934 28
20748 25931 25935 28
20749 25936 25937 28
20750 25936 25938 28
20751 25936 25939 28
20752 25936 25940 28
20753 25941 25942 28
20754 25941 25943 28
20755 25941 25944 28
20756 25941 25945 28
20757 25946 25947 28
20758 25946 25948 28
20759 25946 25949 28
20760 25946 25950 28
20761 25951 25952 28
20762 25951 25953 28
20763 25951 25954 28
20764 25951 25955 28
20765 25956 25957 28
20766 25956 25958 28
20767 25956 25959 28
20768 25956 25960 28
20769 25961 25962 28
20770 25961 25963 28
20771 25961 25964 28
20772 25961 25965 28
20773 25966 25967 28
20774 25966 25968 28
20775 25966 25969 28
20776 25966 25970 28
20777 25971 25972 28
20778 25971 25973 28
20779 25971 25974 28
20780 25971 25975 28
20781 25976 25977 28
20782 25976 25978 28
20783 25976 25979 28
20784 25976 25980 28
20785 25981 25982 28
20786 25981 25983 28
20787 25981 25984 28
20788 25981 25985 28
20789 25986 25987 28
20790 25986 25988 28
20791 25986 25989 28
20792 25986 25990 28
20793 25991 25992 28
20794 25991 25993 28
20795 25991 25994 28
20796 25991 25995 28
20797 25996 25997 28
20798 25996 25998 28
20799 25996 25999 28
20800 25996 26000 28
20801 26001 26002 28
20802 26001 26003 28
20803 26001 26004 28
20804 26001 26005 28
20805 26006 26007 28
20806 26006 26008 28
20807 26006 26009 28
20808 26006 26010 28
20809 26011 26012 28
20810 26011 26013 28
20811 26011 26014 28
20812 26011 26015 28
20813 26016 26017 28
20814 26016 26018 28
20815 26016 26019 28
20816 26016 26020 28
20817 26021 26022 28
20818 26021 26023 28
20819 26021 26024 28
20820 26021 26025 28
20821 26026 26027 28
20822 26026 26028 28
20823 26026 26029 28
20824 26026 26030 28
20825 26031 26032 28
20826 26031 26033 28
20827 26031 26034 28
20828 26031 26035 28
20829 26036 26037 28
20830 26036 26038 28
20831 26036 26039 28
20832 26036 26040 28
20833 26041 26042 28
20834 26041 26043 28
20835 26041 26044 28
20836 26041 26045 28
20837 26046 26047 28
20838 26046 26048 28
20839 26046 26049 28
20840 26046 26050 28
20841 26051 26052 28
20842 26051 26053 28
20843 26051 26054 28
20844 26051 26055 28
20845 26056 26057 28
20846 26056 26058 28
20847 26056 26059 28
20848 26056 26060 28
20849 26061 26062 28
20850 26061 26063 28
20851 26061 26064 28
20852 26061 26065 28
20853 26066 26067 28
20854 26066 26068 28
20855 26066 26069 28
20856 26066 26070 28
20857 26071 26072 28
20858 26071 26073 28
20859 26071 26074 28
20860 26071 26075 28
20861 26076 26077 28
20862 26076 26078 28
20863 26076 26079 28
20864 26076 26080 28
20865 26081 26082 28
20866 26081 26083 28
20867 26081 26084 28
20868 26081 26085 28
20869 26086 26087 28
20870 26086 26088 28
20871 26086 26089 28
20872 26086 26090 28
20873 26091 26092 28
20874 26091 26093 28
20875 26091 26094 28
20876 26091 26095 28
20877 26096 26097 28
20878 26096 26098 28
20879 26096 26099 28
20880 26096 26100 28
20881 26101 26102 28
20882 26101 26103 28
20883 26101 26104 28
20884 26101 26105 28
20885 26106 26107 28
20886 26106 26108 28
20887 26106 26109 28
20888 26106 26110 28
20889 26111 26112 28
20890 26111 26113 28
20891 26111 26114 28
20892 26111 26115 28
20893 26116 26117 28
20894 26116 26118 28
20895 26116 26119 28
20896 26116 26120 28
20897 26121 26122 28
20898 26121 26123 28
20899 26121 26124 28
20900 26121 26125 28
20901 26126 26127 28
20902 26126 26128 28
20903 26126 26129 28
20904 26126 26130 28
20905 26131 26132 28
20906 26131 26133 28
20907 26131 26134 28
20908 26131 26135 28
20909 26136 26137 28
20910 26136 26138 28
20911 26136 26139 28
20912 26136 26140 28
20913 26141 26142 28
20914 26141 26143 28
20915 26141 26144 28
20916 26141 26145 28
20917 26146 26147 28
20918 26146 26148 28
20919 26146 26149 28
20920 26146 26150 28
20921 26151 26152 28
20922 26151 26153 28
20923 26151 26154 28
20924 26151 26155 28
20925 26156 26157 28
20926 26156 26158 28
20927 26156 26159 28
20928 26156 26160 28
20929 26161 26162 28
20930 26161 26163 28
20931 26161 26164 28
20932 26161 26165 28
20933 26166 26167 28
20934 26166 26168 28
20935 26166 26169 28
20936 26166 26170 28
20937 26171 26172 28
20938 26171 26173 28
20939 26171 26174 28
20940 26171 26175 28
20941 26176 26177 28
20942 26176 26178 28
20943 26176 26179 28
20944 26176 26180 28
20945 26181 26182 28
20946 26181 26183 28
20947 26181 26184 28
20948 26181 26185 28
20949 26186 26187 28
20950 26186 26188 28
20951 26186 26189 28
20952 26186 26190 28
20953 26191 26192 28
20954 26191 26193 28
20955 26191 26194 28
20956 26191 26195 28
20957 26196 26197 28
20958 26196 26198 28
20959 26196 26199 28
20960 26196 26200 28
20961 26201 26202 28
20962 26201 26203 28
20963 26201 26204 28
20964 26201 26205 28
20965 26206 26207 28
20966 26206 26208 28
20967 26206 26209 28
20968 26206 26210 28
20969 26211 26212 28
20970 26211 26213 28
20971 26211 26214 28
20972 26211 26215 28
20973 26216 26217 28
20974 26216 26218 28
20975 26216 26219 28
20976 26216 26220 28
20977 26221 26222 28
20978 26221 26223 28
20979 26221 26224 28
20980 26221 26225 28
20981 26226 26227 28
20982 26226 26228 28
20983 26226 26229 28
20984 26226 26230 28
20985 26231 26232 28
20986 26231 26233 28
20987 26231 26234 28
20988 26231 26235 28
20989 26236 26237 28
20990 26236 26238 28
20991 26236 26239 28
20992 26236 26240 28
20993 26241 26242 28
20994 26241 26243 28
20995 26241 26244 28
20996 26241 26245 28
20997 26246 26247 28
20998 26246 26248 28
20999 26246 26249 28
21000 26246 26250 28
21001 26251 26252 28
21002 26251 26253 28
21003 26251 26254 28
21004 26251 26255 28
21005 26256 26257 28
21006 26256 26258 28
21007 26256 26259 28
21008 26256 26260 28
21009 26261 26262 28
21010 26261 26263 28
21011 26261 26264 28
21012 26261 26265 28
21013 26266 26267 28
21014 26266 26268 28
21015 26266 26269 28
21016 26266 26270 28
21017 26271 26272 28
21018 26271 26273 28
21019 26271 26274 28
21020 26271 26275 28
21021 26276 26277 28
21022 26276 26278 28
21023 26276 26279 28
21024 26276 26280 28
21025 26281 26282 28
21026 26281 26283 28
21027 26281 26284 28
21028 26281 26285 28
21029 26286 26287 28
21030 26286 26288 28
21031 26286 26289 28
21032 26286 26290 28
21033 26291 26292 28
21034 26291 26293 28
21035 26291 26294 28
21036 26291 26295 28
21037 26296 26297 28
21038 26296 26298 28
21039 26296 26299 28
21040 26296 26300 28
21041 26301 26302 28
21042 26301 26303 28
21043 26301 26304 28
21044 26301 26305 28
21045 26306 26307 28
21046 26306 26308 28
21047 26306 26309 28
21048 26306 26310 28
21049 26311 26312 28
21050 26311 26313 28
21051 26311 26314 28
21052 26311 26315 28
21053 26316 26317 28
21054 26316 26318 28
21055 26316 26319 28
21056 26316 26320 28
21057 26321 26322 28
21058 26321 26323 28
21059 26321 26324 28
21060 26321 26325 28
21061 26326 26327 28
21062 26326 26328 28
21063 26326 26329 28
21064 26326 26330 28
21065 26331 26332 28
21066 26331 26333 28
21067 26331 26334 28
21068 26331 26335 28
21069 26336 26337 28
21070 26336 26338 28
21071 26336 26339 28
21072 26336 26340 28
21073 26341 26342 28
21074 26341 26343 28
21075 26341 26344 28
21076 26341 26345 28
21077 26346 26347 28
21078 26346 26348 28
21079 26346 26349 28
21080 26346 26350 28
21081 26351 26352 28
21082 26351 26353 28
21083 26351 26354 28
21084 26351 26355 28
21085 26356 26357 28
21086 26356 26358 28
21087 26356 26359 28
21088 26356 26360 28
21089 26361 26362 28
21090 26361 26363 28
21091 26361 26364 28
21092 26361 26365 28
21093 26366 26367 28
21094 26366 26368 28
21095 26366 26369 28
21096 26366 26370 28
21097 26371 26372 28
21098 26371 26373 28
21099 26371 26374 28
21100 26371 26375 28
21101 26376 26377 28
21102 26376 26378 28
21103 26376 26379 28
21104 26376 26380 28
21105 26381 26382 28
21106 26381 26383 28
21107 26381 26384 28
21108 26381 26385 28
21109 26386 26387 28
21110 26386 26388 28
21111 26386 26389 28
21112 26386 26390 28
21113 26391 26392 28
21114 26391 26393 28
21115 26391 26394 28
21116 26391 26395 28
21117 26396 26397 28
21118 26396 26398 28
21119 26396 26399 28
21120 26396 26400 28
21121 26401 26402 28
21122 26401 26403 28
21123 26401 26404 28
21124 26401 26405 28
21125 26406 26407 28
21126 26406 26408 28
21127 26406 26409 28
21128 26406 26410 28
21129 26411 26412 28
21130 26411 26413 28
21131 26411 26414 28
21132 26411 26415 28
21133 26416 26417 28
21134 26416 26418 28
21135 26416 26419 28
21136 26416 26420 28
21137 26421 26422 28
21138 26421 26423 28
21139 26421 26424 28
21140 26421 26425 28
21141 26426 26427 28
21142 26426 26428 28
21143 26426 26429 28
21144 26426 26430 28
21145 26431 26432 28
21146 26431 26433 28
21147 26431 26434 28
21148 26431 26435 28
21149 26436 26437 28
21150 26436 26438 28
21151 26436 26439 28
21152 26436 26440 28
21153 26441 26442 28
21154 26441 26443 28
21155 26441 26444 28
21156 26441 26445 28
21157 26446 26447 28
21158 26446 26448 28
21159 26446 26449 28
21160 26446 26450 28
21161 26451 26452 28
21162 26451 26453 28
21163 26451 26454 28
21164 26451 26455 28
21165 26456 26457 28
21166 26456 26458 28
21167 26456 26459 28
21168 26456 26460 28
21169 26461 26462 28
21170 26461 26463 28
21171 26461 26464 28
21172 26461 26465 28
21173 26466 26467 28
21174 26466 26468 28
21175 26466 26469 28
21176 26466 26470 28
21177 26471 26472 28
21178 26471 26473 28
21179 26471 26474 28
21180 26471 26475 28
21181 26476 26477 28
21182 26476 26478 28
21183 26476 26479 28
21184 26476 26480 28
21185 26481 26482 28
21186 26481 26483 28
21187 26481 26484 28
21188 26481 26485 28
21189 26486 26487 28
21190 26486 26488 28
21191 26486 26489 28
21192 26486 26490 28
21193 26491 26492 28
21194 26491 26493 28
21195 26491 26494 28
21196 26491 26495 28
21197 26496 26497 28
21198 26496 26498 28
21199 26496 26499 28
21200 26496 26500 28
21201 26501 26502 28
21202 26501 26503 28
21203 26501 26504 28
21204 26501 26505 28
21205 26506 26507 28
21206 26506 26508 28
21207 26506 26509 28
21208 26506 26510 28
21209 26511 26512 28
21210 26511 26513 28
21211 26511 26514 28
21212 26511 26515 28
21213 26516 26517 28
21214 26516 26518 28
21215 26516 26519 28
21216 26516 26520 28
21217 26521 26522 28
21218 26521 26523 28
21219 26521 26524 28
21220 26521 26525 28
21221 26526 26527 28
21222 26526 26528 28
21223 26526 26529 28
21224 26526 26530 28
21225 26531 26532 28
21226 26531 26533 28
21227 26531 26534 28
21228 26531 26535 28
21229 26536 26537 28
21230 26536 26538 28
21231 26536 26539 28
21232 26536 26540 28
21233 26541 26542 28
21234 26541 26543 28
21235 26541 26544 28
21236 26541 26545 28
21237 26546 26547 28
21238 26546 26548 28
21239 26546 26549 28
21240 26546 26550 28
21241 26551 26552 28
21242 26551 26553 28
21243 26551 26554 28
21244 26551 26555 28
21245 26556 26557 28
21246 26556 26558 28
21247 26556 26559 28
21248 26556 26560 28
21249 26561 26562 28
21250 26561 26563 28
21251 26561 26564 28
21252 26561 26565 28
21253 26566 26567 28
21254 26566 26568 28
21255 26566 26569 28
21256 26566 26570 28
21257 26571 26572 28
21258 26571 26573 28
21259 26571 26574 28
21260 26571 26575 28
21261 26576 26577 28
21262 26576 26578 28
21263 26576 26579 28
21264 26576 26580 28
21265 26581 26582 28
21266 26581 26583 28
21267 26581 26584 28
21268 26581 26585 28
21269 26586 26587 28
21270 26586 26588 28
21271 26586 26589 28
21272 26586 26590 28
21273 26591 26592 28
21274 26591 26593 28
21275 26591 26594 28
21276 26591 26595 28
21277 26596 26597 28
21278 26596 26598 28
21279 26596 26599 28
21280 26596 26600 28
21281 26601 26602 28
21282 26601 26603 28
21283 26601 26604 28
21284 26601 26605 28
21285 26606 26607 28
21286 26606 26608 28
21287 26606 26609 28
21288 26606 26610 28
21289 26611 26612 28
21290 26611 26613 28
21291 26611 26614 28
21292 26611 26615 28
21293 26616 26617 28
21294 26616 26618 28
21295 26616 26619 28
21296 26616 26620 28
21297 26621 26622 28
21298 26621 26623 28
21299 26621 26624 28
21300 26621 26625 28
21301 26626 26627 28
21302 26626 26628 28
21303 26626 26629 28
21304 26626 26630 28
21305 26631 26632 28
21306 26631 26633 28
21307 26631 26634 28
21308 26631 26635 28
21309 26636 26637 28
21310 26636 26638 28
21311 26636 26639 28
21312 26636 26640 28
21313 26641 26642 28
21314 26641 26643 28
21315 26641 26644 28
21316 26641 26645 28
21317 26646 26647 28
21318 26646 26648 28
21319 26646 26649 28
21320 26646 26650 28
21321 26651 26652 28
21322 26651 26653 28
21323 26651 26654 28
21324 26651 26655 28
21325 26656 26657 28
21326 26656 26658 28
21327 26656 26659 28
21328 26656 26660 28
21329 26661 26662 28
21330 26661 26663 28
21331 26661 26664 28
21332 26661 26665 28
21333 26666 26667 28
21334 26666 26668 28
21335 26666 26669 28
21336 26666 26670 28
21337 26671 26672 28
21338 26671 26673 28
21339 26671 26674 28
21340 26671 26675 28
21341 26676 26677 28
21342 26676 26678 28
21343 26676 26679 28
21344 26676 26680 28
21345 26681 26682 28
21346 26681 26683 28
21347 26681 26684 28
21348 26681 26685 28
21349 26686 26687 28
21350 26686 26688 28
21351 26686 26689 28
21352 26686 26690 28
21353 26691 26692 28
21354 26691 26693 28
21355 26691 26694 28
21356 26691 26695 28
21357 26696 26697 28
21358 26696 26698 28
21359 26696 26699 28
21360 26696 26700 28
21361 26701 26702 28
21362 26701 26703 28
21363 26701 26704 28
21364 26701 26705 28
21365 26706 26707 28
21366 26706 26708 28
21367 26706 26709 28
21368 26706 26710 28
21369 26711 26712 28
21370 26711 26713 28
21371 26711 26714 28
21372 26711 26715 28
21373 26716 26717 28
21374 26716 26718 28
21375 26716 26719 28
21376 26716 26720 28
21377 26721 26722 28
21378 26721 26723 28
21379 26721 26724 28
21380 26721 26725 28
21381 26726 26727 28
21382 26726 26728 28
21383 26726 26729 28
21384 26726 26730 28
21385 26731 26732 28
21386 26731 26733 28
21387 26731 26734 28
21388 26731 26735 28
21389 26736 26737 28
21390 26736 26738 28
21391 26736 26739 28
21392 26736 26740 28
21393 26741 26742 28
21394 26741 26743 28
21395 26741 26744 28
21396 26741 26745 28
21397 26746 26747 28
21398 26746 26748 28
21399 26746 26749 28
21400 26746 26750 28
21401 26751 26752 28
21402 26751 26753 28
21403 26751 26754 28
21404 26751 26755 28
21405 26756 26757 28
21406 26756 26758 28
21407 26756 26759 28
21408 26756 26760 28
21409 26761 26762 28
21410 26761 26763 28
21411 26761 26764 28
21412 26761 26765 28
21413 26766 26767 28
21414 26766 26768 28
21415 26766 26769 28
21416 26766 26770 28
21417 26771 26772 28
21418 26771 26773 28
21419 26771 26774 28
21420 26771 26775 28
21421 26776 26777 28
21422 26776 26778 28
21423 26776 26779 28
21424 26776 26780 28
21425 26781 26782 28
21426 26781 26783 28
21427 26781 26784 28
21428 26781 26785 28
21429 26786 26787 28
21430 26786 26788 28
21431 26786 26789 28
21432 26786 26790 28
21433 26791 26792 28
21434 26791 26793 28
21435 26791 26794 28
21436 26791 26795 28
21437 26796 26797 28
21438 26796 26798 28
21439 26796 26799 28
21440 26796 26800 28
21441 26801 26802 28
21442 26801 26803 28
21443 26801 26804 28
21444 26801 26805 28
21445 26806 26807 28
21446 26806 26808 28
21447 26806 26809 28
21448 26806 26810 28
21449 26811 26812 28
21450 26811 26813 28
21451 26811 26814 28
21452 26811 26815 28
21453 26816 26817 28
21454 26816 26818 28
21455 26816 26819 28
21456 26816 26820 28
21457 26821 26822 28
21458 26821 26823 28
21459 26821 26824 28
21460 26821 26825 28
21461 26826 26827 28
21462 26826 26828 28
21463 26826 26829 28
21464 26826 26830 28
21465 26831 26832 28
21466 26831 26833 28
21467 26831 26834 28
21468 26831 26835 28
21469 26836 26837 28
21470 26836 26838 28
21471 26836 26839 28
21472 26836 26840 28
21473 26841 26842 28
21474 26841 26843 28
21475 26841 26844 28
21476 26841 26845 28
21477 26846 26847 28
21478 26846 26848 28
21479 26846 26849 28
21480 26846 26850 28
21481 26851 26852 28
21482 26851 26853 28
21483 26851 26854 28
21484 26851 26855 28
21485 26856 26857 28
21486 26856 26858 28
21487 26856 26859 28
21488 26856 26860 28
21489 26861 26862 28
21490 26861 26863 28
21491 26861 26864 28
21492 26861 26865 28
21493 26866 26867 28
21494 26866 26868 28
21495 26866 26869 28
21496 26866 26870 28
21497 26871 26872 28
21498 26871 26873 28
21499 26871 26874 28
21500 26871 26875 28
21501 26876 26877 28
21502 26876 26878 28
21503 26876 26879 28
21504 26876 26880 28
21505 26881 26882 28
21506 26881 26883 28
21507 26881 26884 28
21508 26881 26885 28
21509 26886 26887 28
21510 26886 26888 28
21511 26886 26889 28
21512 26886 26890 28
21513 26891 26892 28
21514 26891 26893 28
21515 26891 26894 28
21516 26891 26895 28
21517 26896 26897 28
21518 26896 26898 28
21519 26896 26899 28
21520 26896 26900 28
21521 26901 26902 28
21522 26901 26903 28
21523 26901 26904 28
21524 26901 26905 28
21525 26906 26907 28
21526 26906 26908 28
21527 26906 26909 28
21528 26906 26910 28
21529 26911 26912 28
21530 26911 26913 28
21531 26911 26914 28
21532 26911 26915 28
21533 26916 26917 28
21534 26916 26918 28
21535 26916 26919 28
21536 26916 26920 28
21537 26921 26922 28
21538 26921 26923 28
21539 26921 26924 28
21540 26921 26925 28
21541 26926 26927 28
21542 26926 26928 28
21543 26926 26929 28
21544 26926 26930 28
21545 26931 26932 28
21546 26931 26933 28
21547 26931 26934 28
21548 26931 26935 28
21549 26936 26937 28
21550 26936 26938 28
21551 26936 26939 28
21552 26936 26940 28
21553 26941 26942 28
21554 26941 26943 28
21555 26941 26944 28
21556 26941 26945 28
21557 26946 26947 28
21558 26946 26948 28
21559 26946 26949 28
21560 26946 26950 28
21561 26951 26952 28
21562 26951 26953 28
21563 26951 26954 28
21564 26951 26955 28
21565 26956 26957 28
21566 26956 26958 28
21567 26956 26959 28
21568 26956 26960 28
21569 26961 26962 28
21570 26961 26963 28
21571 26961 26964 28
21572 26961 26965 28
21573 26966 26967 28
21574 26966 26968 28
21575 26966 26969 28
21576 26966 26970 28
21577 26971 26972 28
21578 26971 26973 28
21579 26971 26974 28
21580 26971 26975 28
21581 26976 26977 28
21582 26976 26978 28
21583 26976 26979 28
21584 26976 26980 28
21585 26981 26982 28
21586 26981 26983 28
21587 26981 26984 28
21588 26981 26985 28
21589 26986 26987 28
21590 26986 26988 28
21591 26986 26989 28
21592 26986 26990 28
21593 26991 26992 28
21594 26991 26993 28
21595 26991 26994 28
21596 26991 26995 28
21597 26996 26997 28
21598 26996 26998 28
21599 26996 26999 28
21600 26996 27000 28
21601 27001 27002 28
21602 27001 27003 28
21603 27001 27004 28
21604 27001 27005 28
21605 27006 27007 28
21606 27006 27008 28
21607 27006 27009 28
21608 27006 27010 28
21609 27011 27012 28
21610 27011 27013 28
21611 27011 27014 28
21612 27011 27015 28
21613 27016 27017 28
21614 27016 27018 28
21615 27016 27019 28
21616 27016 27020 28
21617 27021 27022 28
21618 27021 27023 28
21619 27021 27024 28
21620 27021 27025 28
21621 27026 27027 28
21622 27026 27028 28
21623 27026 27029 28
21624 27026 27030 28
21625 27031 27032 28
21626 27031 27033 28
21627 27031 27034 28
21628 27031 27035 28
21629 27036 27037 28
21630 27036 27038 28
21631 27036 27039 28
21632 27036 27040 28
21633 27041 27042 28
21634 27041 27043 28
21635 27041 27044 28
21636 27041 27045 28
21637 27046 27047 28
21638 27046 27048 28
21639 27046 27049 28
21640 27046 27050 28
21641 27051 27052 28
21642 27051 27053 28
21643 27051 27054 28
21644 27051 27055 28
21645 27056 27057 28
21646 27056 27058 28
21647 27056 27059 28
21648 27056 27060 28
21649 27061 27062 28
21650 27061 27063 28
21651 27061 27064 28
21652 27061 27065 28
21653 27066 27067 28
21654 27066 27068 28
21655 27066 27069 28
21656 27066 27070 28
21657 27071 27072 28
21658 27071 27073 28
21659 27071 27074 28
21660 27071 27075 28
21661 27076 27077 28
21662 27076 27078 28
21663 27076 27079 28
21664 27076 27080 28
21665 27081 27082 28
21666 27081 27083 28
21667 27081 27084 28
21668 27081 27085 28
21669 27086 27087 28
21670 27086 27088 28
21671 27086 27089 28
21672 27086 27090 28
21673 27091 27092 28
21674 27091 27093 28
21675 27091 27094 28
21676 27091 27095 28
21677 27096 27097 28
21678 27096 27098 28
21679 27096 27099 28
21680 27096 27100 28
21681 27101 27102 28
21682 27101 27103 28
21683 27101 27104 28
21684 27101 27105 28
21685 27106 27107 28
21686 27106 27108 28
21687 27106 27109 28
21688 27106 27110 28
21689 27111 27112 28
21690 27111 27113 28
21691 27111 27114 28
21692 27111 27115 28
21693 27116 27117 28
21694 27116 27118 28
21695 27116 27119 28
21696 27116 27120 28
21697 27121 27122 28
21698 27121 27123 28
21699 27121 27124 28
21700 27121 27125 28
21701 27126 27127 28
21702 27126 27128 28
21703 27126 27129 28
21704 27126 27130 28
21705 27131 27132 28
21706 27131 27133 28
21707 27131 27134 28
21708 27131 27135 28
21709 27136 27137 28
21710 27136 27138 28
21711 27136 27139 28
21712 27136 27140 28
21713 27141 27142 28
21714 27141 27143 28
21715 27141 27144 28
21716 27141 27145 28
21717 27146 27147 28
21718 27146 27148 28
21719 27146 27149 28
21720 27146 27150 28
21721 27151 27152 28
21722 27151 27153 28
21723 27151 27154 28
21724 27151 27155 28
21725 27156 27157 28
21726 27156 27158 28
21727 27156 27159 28
21728 27156 27160 28
21729 27161 27162 28
21730 27161 27163 28
21731 27161 27164 28
21732 27161 27165 28
21733 27166 27167 28
21734 27166 27168 28
21735 27166 27169 28
21736 27166 27170 28
21737 27171 27172 28
21738 27171 27173 28
21739 27171 27174 28
21740 27171 27175 28
21741 27176 27177 28
21742 27176 27178 28
21743 27176 27179 28
21744 27176 27180 28
21745 27181 27182 28
21746 27181 27183 28
21747 27181 27184 28
21748 27181 27185 28
21749 27186 27187 28
21750 27186 27188 28
21751 27186 27189 28
21752 27186 27190 28
21753 27191 27192 28
21754 27191 27193 28
21755 27191 27194 28
21756 27191 27195 28
21757 27196 27197 28
21758 27196 27198 28
21759 27196 27199 28
21760 27196 27200 28
21761 27201 27202 28
21762 27201 27203 28
21763 27201 27204 28
21764 27201 27205 28
21765 27206 27207 28
21766 27206 27208 28
21767 27206 27209 28
21768 27206 27210 28
21769 27211 27212 28
21770 27211 27213 28
21771 27211 27214 28
21772 27211 27215 28
21773 27216 27217 28
21774 27216 27218 28
21775 27216 27219 28
21776 27216 27220 28
21777 27221 27222 28
21778 27221 27223 28
21779 27221 27224 28
21780 27221 27225 28
21781 27226 27227 28
21782 27226 27228 28
21783 27226 27229 28
21784 27226 27230 28
21785 27231 27232 28
21786 27231 27233 28
21787 27231 27234 28
21788 27231 27235 28
21789 27236 27237 28
21790 27236 27238 28
21791 27236 27239 28
21792 27236 27240 28
21793 27241 27242 28
21794 27241 27243 28
21795 27241 27244 28
21796 27241 27245 28
21797 27246 27247 28
21798 27246 27248 28
21799 27246 27249 28
21800 27246 27250 28
21801 27251 27252 28
21802 27251 27253 28
21803 27251 27254 28
21804 27251 27255 28
21805 27256 27257 28
21806 27256 27258 28
21807 27256 27259 28
21808 27256 27260 28
21809 27261 27262 28
21810 27261 27263 28
21811 27261 27264 28
21812 27261 27265 28
21813 27266 27267 28
21814 27266 27268 28
21815 27266 27269 28
21816 27266 27270 28
21817 27271 27272 28
21818 27271 27273 28
21819 27271 27274 28
21820 27271 27275 28
21821 27276 27277 28
21822 27276 27278 28
21823 27276 27279 28
21824 27276 27280 28
21825 27281 27282 28
21826 27281 27283 28
21827 27281 27284 28
21828 27281 27285 28
21829 27286 27287 28
21830 27286 27288 28
21831 27286 27289 28
21832 27286 27290 28
21833 27291 27292 28
21834 27291 27293 28
21835 27291 27294 28
21836 27291 27295 28
21837 27296 27297 28
21838 27296 27298 28
21839 27296 27299 28
21840 27296 27300 28
21841 27301 27302 28
21842 27301 27303 28
21843 27301 27304 28
21844 27301 27305 28
21845 27306 27307 28
21846 27306 27308 28
21847 27306 27309 28
21848 27306 27310 28
21849 27311 27312 28
21850 27311 27313 28
21851 27311 27314 28
21852 27311 27315 28
21853 27316 27317 28
21854 27316 27318 28
21855 27316 27319 28
21856 27316 27320 28
21857 27321 27322 28
21858 27321 27323 28
21859 27321 27324 28
21860 27321 27325 28
21861 27326 27327 28
21862 27326 27328 28
21863 27326 27329 28
21864 27326 27330 28
21865 27331 27332 28
21866 27331 27333 28
21867 27331 27334 28
21868 27331 27335 28
21869 27336 27337 28
21870 27336 27338 28
21871 27336 27339 28
21872 27336 27340 28
21873 27341 27342 28
21874 27341 27343 28
21875 27341 27344 28
21876 27341 27345 28
21877 27346 27347 28
21878 27346 27348 28
21879 27346 27349 28
21880 27346 27350 28
21881 27351 27352 28
21882 27351 27353 28
21883 27351 27354 28
21884 27351 27355 28
21885 27356 27357 28
21886 27356 27358 28
21887 27356 27359 28
21888 27356 27360 28
21889 27361 27362 28
21890 27361 27363 28
21891 27361 27364 28
21892 27361 27365 28
21893 27366 27367 28
21894 27366 27368 28
21895 27366 27369 28
21896 27366 27370 28
21897 27371 27372 28
21898 27371 27373 28
21899 27371 27374 28
21900 27371 27375 28
21901 27376 27377 28
21902 27376 27378 28
21903 27376 27379 28
21904 27376 27380 28
21905 27381 27382 28
21906 27381 27383 28
21907 27381 27384 28
21908 27381 27385 28
21909 27386 27387 28
21910 27386 27388 28
21911 27386 27389 28
21912 27386 27390 28
21913 27391 27392 28
21914 27391 27393 28
21915 27391 27394 28
21916 27391 27395 28
21917 27396 27397 28
21918 27396 27398 28
21919 27396 27399 28
21920 27396 27400 28
21921 27401 27402 28
21922 27401 27403 28
21923 27401 27404 28
21924 27401 27405 28
21925 27406 27407 28
21926 27406 27408 28
21927 27406 27409 28
21928 27406 27410 28
21929 27411 27412 28
21930 27411 27413 28
21931 27411 27414 28
21932 27411 27415 28
21933 27416 27417 28
21934 27416 27418 28
21935 27416 27419 28
21936 27416 27420 28
21937 27421 27422 28
21938 27421 27423 28
21939 27421 27424 28
21940 27421 27425 28
21941 27426 27427 28
21942 27426 27428 28
21943 27426 27429 28
21944 27426 27430 28
21945 27431 27432 28
21946 27431 27433 28
21947 27431 27434 28
21948 27431 27435 28
21949 27436 27437 28
21950 27436 27438 28
21951 27436 27439 28
21952 27436 27440 28
21953 27441 27442 28
21954 27441 27443 28
21955 27441 27444 28
21956 27441 27445 28
21957 27446 27447 28
21958 27446 27448 28
21959 27446 27449 28
21960 27446 27450 28
21961 27451 27452 28
21962 27451 27453 28
21963 27451 27454 28
21964 27451 27455 28
21965 27456 27457 28
21966 27456 27458 28
21967 27456 27459 28
21968 27456 27460 28
21969 27461 27462 28
21970 27461 27463 28
21971 27461 27464 28
21972 27461 27465 28
21973 27466 27467 28
21974 27466 27468 28
21975 27466 27469 28
21976 27466 27470 28
21977 27471 27472 28
21978 27471 27473 28
21979 27471 27474 28
21980 27471 27475 28
21981 27476 27477 28
21982 27476 27478 28
21983 27476 27479 28
21984 27476 27480 28
21985 27481 27482 28
21986 27481 27483 28
21987 27481 27484 28
21988 27481 27485 28
21989 27486 27487 28
21990 27486 27488 28
21991 27486 27489 28
21992 27486 27490 28
21993 27491 27492 28
21994 27491 27493 28
21995 27491 27494 28
21996 27491 27495 28
21997 27496 27497 28
21998 27496 27498 28
21999 27496 27499 28
22000 27496 27500 28
22001 27501 27502 28
22002 27501 27503 28
22003 27501 27504 28
22004 27501 27505 28
22005 27506 27507 28
22006 27506 27508 28
22007 27506 27509 28
22008 27506 27510 28
22009 27511 27512 28
22010 27511 27513 28
22011 27511 27514 28
22012 27511 27515 28
22013 27516 27517 28
22014 27516 27518 28
22015 27516 27519 28
22016 27516 27520 28
22017 27521 27522 28
22018 27521 27523 28
22019 27521 27524 28
22020 27521 27525 28
22021 27526 27527 28
22022 27526 27528 28
22023 27526 27529 28
22024 27526 27530 28
22025 27531 27532 28
22026 27531 27533 28
22027 27531 27534 28
22028 27531 27535 28
22029 27536 27537 28
22030 27536 27538 28
22031 27536 27539 28
22032 27536 27540 28
22033 27541 27542 28
22034 27541 27543 28
22035 27541 27544 28
22036 27541 27545 28
22037 27546 27547 28
22038 27546 27548 28
22039 27546 27549 28
22040 27546 27550 28
22041 27551 27552 28
22042 27551 27553 28
22043 27551 27554 28
22044 27551 27555 28
22045 27556 27557 28
22046 27556 27558 28
22047 27556 27559 28
22048 27556 27560 28
22049 27561 27562 28
22050 27561 27563 28
22051 27561 27564 28
22052 27561 27565 28
22053 27566 27567 28
22054 27566 27568 28
22055 27566 27569 28
22056 27566 27570 28
22057 27571 27572 28
22058 27571 27573 28
22059 27571 27574 28
22060 27571 27575 28
22061 27576 27577 28
22062 27576 27578 28
22063 27576 27579 28
22064 27576 27580 28
22065 27581 27582 28
22066 27581 27583 28
22067 27581 27584 28
22068 27581 27585 28
22069 27586 27587 28
22070 27586 27588 28
22071 27586 27589 28
22072 27586 27590 28
22073 27591 27592 28
22074 27591 27593 28
22075 27591 27594 28
22076 27591 27595 28
22077 27596 27597 28
22078 27596 27598 28
22079 27596 27599 28
22080 27596 27600 28
22081 27601 27602 28
22082 27601 27603 28
22083 27601 27604 28
22084 27601 27605 28
22085 27606 27607 28
22086 27606 27608 28
22087 27606 27609 28
22088 27606 27610 28
22089 27611 27612 28
22090 27611 27613 28
22091 27611 27614 28
22092 27611 27615 28
22093 27616 27617 28
22094 27616 27618 28
22095 27616 27619 28
22096 27616 27620 28
22097 27621 27622 28
22098 27621 27623 28
22099 27621 27624 28
22100 27621 27625 28
22101 27626 27627 28
22102 27626 27628 28
22103 27626 27629 28
22104 27626 27630 28
22105 27631 27632 28
22106 27631 27633 28
22107 27631 27634 28
22108 27631 27635 28
22109 27636 27637 28
22110 27636 27638 28
22111 27636 27639 28
22112 27636 27640 28
22113 27641 27642 28
22114 27641 27643 28
22115 27641 27644 28
22116 27641 27645 28
22117 27646 27647 28
22118 27646 27648 28
22119 27646 27649 28
22120 27646 27650 28
22121 27651 27652 28
22122 27651 27653 28
22123 27651 27654 28
22124 27651 27655 28
22125 27656 27657 28
22126 27656 27658 28
22127 27656 27659 28
22128 27656 27660 28
22129 27661 27662 28
22130 27661 27663 28
22131 27661 27664 28
22132 27661 27665 28
22133 27666 27667 28
22134 27666 27668 28
22135 27666 27669 28
22136 27666 27670 28
22137 27671 27672 28
22138 27671 27673 28
22139 27671 27674 28
22140 27671 27675 28
22141 27676 27677 28
22142 27676 27678 28
22143 27676 27679 28
22144 27676 27680 28
22145 27681 27682 28
22146 27681 27683 28
22147 27681 27684 28
22148 27681 27685 28
22149 27686 27687 28
22150 27686 27688 28
22151 27686 27689 28
22152 27686 27690 28
22153 27691 27692 28
22154 27691 27693 28
22155 27691 27694 28
22156 27691 27695 28
22157 27696 27697 28
22158 27696 27698 28
22159 27696 27699 28
22160 27696 27700 28
22161 27701 27702 28
22162 27701 27703 28
22163 27701 27704 28
22164 27701 27705 28
22165 27706 27707 28
22166 27706 27708 28
22167 27706 27709 28
22168 27706 27710 28
22169 27711 27712 28
22170 27711 27713 28
22171 27711 27714 28
22172 27711 27715 28
22173 27716 27717 28
22174 27716 27718 28
22175 27716 27719 28
22176 27716 27720 28
22177 27721 27722 28
22178 27721 27723 28
22179 27721 27724 28
22180 27721 27725 28
22181 27726 27727 28
22182 27726 27728 28
22183 27726 27729 28
22184 27726 27730 28
22185 27731 27732 28
22186 27731 27733 28
22187 27731 27734 28
22188 27731 27735 28
22189 27736 27737 28
22190 27736 27738 28
22191 27736 27739 28
22192 27736 27740 28
22193 27741 27742 28
22194 27741 27743 28
22195 27741 27744 28
22196 27741 27745 28
22197 27746 27747 28
22198 27746 27748 28
22199 27746 27749 28
22200 27746 27750 28
22201 27751 27752 28
22202 27751 27753 28
22203 27751 27754 28
22204 27751 27755 28
22205 27756 27757 28
22206 27756 27758 28
22207 27756 27759 28
22208 27756 27760 28
22209 27761 27762 28
22210 27761 27763 28
22211 27761 27764 28
22212 27761 27765 28
22213 27766 27767 28
22214 27766 27768 28
22215 27766 27769 28
22216 27766 27770 28
22217 27771 27772 28
22218 27771 27773 28
22219 27771 27774 28
22220 27771 27775 28
22221 27776 27777 28
22222 27776 27778 28
22223 27776 27779 28
22224 27776 27780 28
22225 27781 27782 28
22226 27781 27783 28
22227 27781 27784 28
22228 27781 27785 28
22229 27786 27787 28
22230 27786 27788 28
22231 27786 27789 28
22232 27786 27790 28
22233 27791 27792 28
22234 27791 27793 28
22235 27791 27794 28
22236 27791 27795 28
22237 27796 27797 28
22238 27796 27798 28
22239 27796 27799 28
22240 27796 27800 28
22241 27801 27802 28
22242 27801 27803 28
22243 27801 27804 28
22244 27801 27805 28
22245 27806 27807 28
22246 27806 27808 28
22247 27806 27809 28
22248 27806 27810 28
22249 27811 27812 28
22250 27811 27813 28
22251 27811 27814 28
22252 27811 27815 28
22253 27816 27817 28
22254 27816 27818 28
22255 27816 27819 28
22256 27816 27820 28
22257 27821 27822 28
22258 27821 27823 28
22259 27821 27824 28
22260 27821 27825 28
22261 27826 27827 28
22262 27826 27828 28
22263 27826 27829 28
22264 27826 27830 28
22265 27831 27832 28
22266 27831 27833 28
22267 27831 27834 28
22268 27831 27835 28
22269 27836 27837 28
22270 27836 27838 28
22271 27836 27839 28
22272 27836 27840 28
22273 27841 27842 28
22274 27841 27843 28
22275 27841 27844 28
22276 27841 27845 28
22277 27846 27847 28
22278 27846 27848 28
22279 27846 27849 28
22280 27846 27850 28
22281 27851 27852 28
22282 27851 27853 28
22283 27851 27854 28
22284 27851 27855 28
22285 27856 27857 28
22286 27856 27858 28
22287 27856 27859 28
22288 27856 27860 28
22289 27861 27862 28
22290 27861 27863 28
22291 27861 27864 28
22292 27861 27865 28
22293 27866 27867 28
22294 27866 27868 28
22295 27866 27869 28
22296 27866 27870 28
22297 27871 27872 28
22298 27871 27873 28
22299 27871 27874 28
22300 27871 27875 28
22301 27876 27877 28
22302 27876 27878 28
22303 27876 27879 28
22304 27876 27880 28
22305 27881 27882 28
22306 27881 27883 28
22307 27881 27884 28
22308 27881 27885 28
22309 27886 27887 28
22310 27886 27888 28
22311 27886 27889 28
22312 27886 27890 28
22313 27891 27892 28
22314 27891 27893 28
22315 27891 27894 28
22316 27891 27895 28
22317 27896 27897 28
22318 27896 27898 28
22319 27896 27899 28
22320 27896 27900 28
22321 27901 27902 28
22322 27901 27903 28
22323 27901 27904 28
22324 27901 27905 28
22325 27906 27907 28
22326 27906 27908 28
22327 27906 27909 28
22328 27906 27910 28
22329 27911 27912 28
22330 27911 27913 28
22331 27911 27914 28
22332 27911 27915 28
22333 27916 27917 28
22334 27916 27918 28
22335 27916 27919 28
22336 27916 27920 28
22337 27921 27922 28
22338 27921 27923 28
22339 27921 27924 28
22340 27921 27925 28
22341 27926 27927 28
22342 27926 27928 28
22343 27926 27929 28
22344 27926 27930 28
22345 27931 27932 28
22346 27931 27933 28
22347 27931 27934 28
22348 27931 27935 28
22349 27936 27937 28
22350 27936 27938 28
22351 27936 27939 28
22352 27936 27940 28
22353 27941 27942 28
22354 27941 27943 28
22355 27941 27944 28
22356 27941 27945 28
22357 27946 27947 28
22358 27946 27948 28
22359 27946 27949 28
22360 27946 27950 28
22361 27951 27952 28
22362 27951 27953 28
22363 27951 27954 28
22364 27951 27955 28
22365 27956 27957 28
22366 27956 27958 28
22367 27956 27959 28
22368 27956 27960 28
22369 27961 27962 28
22370 27961 27963 28
22371 27961 27964 28
22372 27961 27965 28
22373 27966 27967 28
22374 27966 27968 28
22375 27966 27969 28
22376 27966 27970 28
22377 27971 27972 28
22378 27971 27973 28
22379 27971 27974 28
22380 27971 27975 28
22381 27976 27977 28
22382 27976 27978 28
22383 27976 27979 28
22384 27976 27980 28
22385 27981 27982 28
22386 27981 27983 28
22387 27981 27984 28
22388 27981 27985 28
22389 27986 27987 28
22390 27986 27988 28
22391 27986 27989 28
22392 27986 27990 28
22393 27991 27992 28
22394 27991 27993 28
22395 27991 27994 28
22396 27991 27995 28
22397 27996 27997 28
22398 27996 27998 28
22399 27996 27999 28
22400 27996 28000 28
22401 28001 28002 28
22402 28001 28003 28
22403 28001 28004 28
22404 28001 28005 28
22405 28006 28007 28
22406 28006 28008 28
22407 28006 28009 28
22408 28006 28010 28
22409 28011 28012 28
22410 28011 28013 28
22411 28011 28014 28
22412 28011 28015 28
22413 28016 28017 28
22414 28016 28018 28
22415 28016 28019 28
22416 28016 28020 28
22417 28021 28022 28
22418 28021 28023 28
22419 28021 28024 28
22420 28021 28025 28
22421 28026 28027 28
22422 28026 28028 28
22423 28026 28029 28
22424 28026 28030 28
22425 28031 28032 28
22426 28031 28033 28
22427 28031 28034 28
22428 28031 28035 28
22429 28036 28037 28
22430 28036 28038 28
22431 28036 28039 28
22432 28036 28040 28
22433 28041 28042 28
22434 28041 28043 28
22435 28041 28044 28
22436 28041 28045 28
22437 28046 28047 28
22438 28046 28048 28
22439 28046 28049 28
22440 28046 28050 28
22441 28051 28052 28
22442 28051 28053 28
22443 28051 28054 28
22444 28051 28055 28
22445 28056 28057 28
22446 28056 28058 28
22447 28056 28059 28
22448 28056 28060 28
22449 28061 28062 28
22450 28061 28063 28
22451 28061 28064 28
22452 28061 28065 28
22453 28066 28067 28
22454 28066 28068 28
22455 28066 28069 28
22456 28066 28070 28
22457 28071 28072 28
22458 28071 28073 28
22459 28071 28074 28
22460 28071 28075 28
22461 28076 28077 28
22462 28076 28078 28
22463 28076 28079 28
22464 28076 28080 28
22465 28081 28082 28
22466 28081 28083 28
22467 28081 28084 28
22468 28081 28085 28
22469 28086 28087 28
22470 28086 28088 28
22471 28086 28089 28
22472 28086 28090 28
22473 28091 28092 28
22474 28091 28093 28
22475 28091 28094 28
22476 28091 28095 28
22477 28096 28097 28
22478 28096 28098 28
22479 28096 28099 28
22480 28096 28100 28
22481 28101 28102 28
22482 28101 28103 28
22483 28101 28104 28
22484 28101 28105 28
22485 28106 28107 28
22486 28106 28108 28
22487 28106 28109 28
22488 28106 28110 28
22489 28111 28112 28
22490 28111 28113 28
22491 28111 28114 28
22492 28111 28115 28
22493 28116 28117 28
22494 28116 28118 28
22495 28116 28119 28
22496 28116 28120 28
22497 28121 28122 28
22498 28121 28123 28
22499 28121 28124 28
22500 28121 28125 28
22501 28126 28127 28
22502 28126 28128 28
22503 28126 28129 28
22504 28126 28130 28
22505 28131 28132 28
22506 28131 28133 28
22507 28131 28134 28
22508 28131 28135 28
22509 28136 28137 28
22510 28136 28138 28
22511 28136 28139 28
22512 28136 28140 28
22513 28141 28142 28
22514 28141 28143 28
22515 28141 28144 28
22516 28141 28145 28
22517 28146 28147 28
22518 28146 28148 28
22519 28146 28149 28
22520 28146 28150 28
22521 28151 28152 28
22522 28151 28153 28
22523 28151 28154 28
22524 28151 28155 28
22525 28156 28157 28
22526 28156 28158 28
22527 28156 28159 28
22528 28156 28160 28
22529 28161 28162 28
22530 28161 28163 28
22531 28161 28164 28
22532 28161 28165 28
22533 28166 28167 28
22534 28166 28168 28
22535 28166 28169 28
22536 28166 28170 28
22537 28171 28172 28
22538 28171 28173 28
22539 28171 28174 28
22540 28171 28175 28
22541 28176 28177 28
22542 28176 28178 28
22543 28176 28179 28
22544 28176 28180 28
22545 28181 28182 28
22546 28181 28183 28
22547 28181 28184 28
22548 28181 28185 28
22549 28186 28187 28
22550 28186 28188 28
22551 28186 28189 28
22552 28186 28190 28
22553 28191 28192 28
22554 28191 28193 28
22555 28191 28194 28
22556 28191 28195 28
22557 28196 28197 28
22558 28196 28198 28
22559 28196 28199 28
22560 28196 28200 28
22561 28201 28202 28
22562 28201 28203 28
22563 28201 28204 28
22564 28201 28205 28
22565 28206 28207 28
22566 28206 28208 28
22567 28206 28209 28
22568 28206 28210 28
22569 28211 28212 28
22570 28211 28213 28
22571 28211 28214 28
22572 28211 28215 28
22573 28216 28217 28
22574 28216 28218 28
22575 28216 28219 28
22576 28216 28220 28
22577 28221 28222 28
22578 28221 28223 28
22579 28221 28224 28
22580 28221 28225 28
22581 28226 28227 28
22582 28226 28228 28
22583 28226 28229 28
22584 28226 28230 28
22585 28231 28232 28
22586 28231 28233 28
22587 28231 28234 28
22588 28231 28235 28
22589 28236 28237 28
22590 28236 28238 28
22591 28236 28239 28
22592 28236 28240 28
22593 28241 28242 28
22594 28241 28243 28
22595 28241 28244 28
22596 28241 28245 28
22597 28246 28247 28
22598 28246 28248 28
22599 28246 28249 28
22600 28246 28250 28
22601 28251 28252 28
22602 28251 28253 28
22603 28251 28254 28
22604 28251 28255 28
22605 28256 28257 28
22606 28256 28258 28
22607 28256 28259 28
22608 28256 28260 28
22609 28261 28262 28
22610 28261 28263 28
22611 28261 28264 28
22612 28261 28265 28
22613 28266 28267 28
22614 28266 28268 28
22615 28266 28269 28
22616 28266 28270 28
22617 28271 28272 28
22618 28271 28273 28
22619 28271 28274 28
22620 28271 28275 28
22621 28276 28277 28
22622 28276 28278 28
22623 28276 28279 28
22624 28276 28280 28
22625 28281 28282 28
22626 28281 28283 28
22627 28281 28284 28
22628 28281 28285 28
22629 28286 28287 28
22630 28286 28288 28
22631 28286 28289 28
22632 28286 28290 28
22633 28291 28292 28
22634 28291 28293 28
22635 28291 28294 28
22636 28291 28295 28
22637 28296 28297 28
22638 28296 28298 28
22639 28296 28299 28
22640 28296 28300 28
22641 28301 28302 28
22642 28301 28303 28
22643 28301 28304 28
22644 28301 28305 28
22645 28306 28307 28
22646 28306 28308 28
22647 28306 28309 28
22648 28306 28310 28
22649 28311 28312 28
22650 28311 28313 28
22651 28311 28314 28
22652 28311 28315 28
22653 28316 28317 28
22654 28316 28318 28
22655 28316 28319 28
22656 28316 28320 28
22657 28321 28322 28
22658 28321 28323 28
22659 28321 28324 28
22660 28321 28325 28
22661 28326 28327 28
22662 28326 28328 28
22663 28326 28329 28
22664 28326 28330 28
22665 28331 28332 28
22666 28331 28333 28
22667 28331 28334 28
22668 28331 28335 28
22669 28336 28337 28
22670 28336 28338 28
22671 28336 28339 28
22672 28336 28340 28
22673 28341 28342 28
22674 28341 28343 28
22675 28341 28344 28
22676 28341 28345 28
22677 28346 28347 28
22678 28346 28348 28
22679 28346 28349 28
22680 28346 28350 28
22681 28351 28352 28
22682 28351 28353 28
22683 28351 28354 28
22684 28351 28355 28
22685 28356 28357 28
22686 28356 28358 28
22687 28356 28359 28
22688 28356 28360 28
22689 28361 28362 28
22690 28361 28363 28
22691 28361 28364 28
22692 28361 28365 28
22693 28366 28367 28
22694 28366 28368 28
22695 28366 28369 28
22696 28366 28370 28
22697 28371 28372 28
22698 28371 28373 28
22699 28371 28374 28
22700 28371 28375 28
22701 28376 28377 28
22702 28376 28378 28
22703 28376 28379 28
22704 28376 28380 28
22705 28381 28382 28
22706 28381 28383 28
22707 28381 28384 28
22708 28381 28385 28
22709 28386 28387 28
22710 28386 28388 28
22711 28386 28389 28
22712 28386 28390 28
22713 28391 28392 28
22714 28391 28393 28
22715 28391 28394 28
22716 28391 28395 28
22717 28396 28397 28
22718 28396 28398 28
22719 28396 28399 28
22720 28396 28400 28
22721 28401 28402 28
22722 28401 28403 28
22723 28401 28404 28
22724 28401 28405 28
22725 28406 28407 28
22726 28406 28408 28
22727 28406 28409 28
22728 28406 28410 28
22729 28411 28412 28
22730 28411 28413 28
22731 28411 28414 28
22732 28411 28415 28
22733 28416 28417 28
22734 28416 28418 28
22735 28416 28419 28
22736 28416 28420 28
22737 28421 28422 28
22738 28421 28423 28
22739 28421 28424 28
22740 28421 28425 28
22741 28426 28427 28
22742 28426 28428 28
22743 28426 28429 28
22744 28426 28430 28
22745 28431 28432 28
22746 28431 28433 28
22747 28431 28434 28
22748 28431 28435 28
22749 28436 28437 28
22750 28436 28438 28
22751 28436 28439 28
22752 28436 28440 28
22753 28441 28442 28
22754 28441 28443 28
22755 28441 28444 28
22756 28441 28445 28
22757 28446 28447 28
22758 28446 28448 28
22759 28446 28449 28
22760 28446 28450 28
22761 28451 28452 28
22762 28451 28453 28
22763 28451 28454 28
22764 28451 28455 28
22765 28456 28457 28
22766 28456 28458 28
22767 28456 28459 28
22768 28456 28460 28
22769 28461 28462 28
22770 28461 28463 28
22771 28461 28464 28
22772 28461 28465 28
22773 28466 28467 28
22774 28466 28468 28
22775 28466 28469 28
22776 28466 28470 28
22777 28471 28472 28
22778 28471 28473 28
22779 28471 28474 28
22780 28471 28475 28
22781 28476 28477 28
22782 28476 28478 28
22783 28476 28479 28
22784 28476 28480 28
22785 28481 28482 28
22786 28481 28483 28
22787 28481 28484 28
22788 28481 28485 28
22789 28486 28487 28
22790 28486 28488 28
22791 28486 28489 28
22792 28486 28490 28
22793 28491 28492 28
22794 28491 28493 28
22795 28491 28494 28
22796 28491 28495 28
22797 28496 28497 28
22798 28496 28498 28
22799 28496 28499 28
22800 28496 28500 28
22801 28501 28502 28
22802 28501 28503 28
22803 28501 28504 28
22804 28501 28505 28
22805 28506 28507 28
22806 28506 28508 28
22807 28506 28509 28
22808 28506 28510 28
22809 28511 28512 28
22810 28511 28513 28
22811 28511 28514 28
22812 28511 28515 28
22813 28516 28517 28
22814 28516 28518 28
22815 28516 28519 28
22816 28516 28520 28
22817 28521 28522 28
22818 28521 28523 28
22819 28521 28524 28
22820 28521 28525 28
22821 28526 28527 28
22822 28526 28528 28
22823 28526 28529 28
22824 28526 28530 28
22825 28531 28532 28
22826 28531 28533 28
22827 28531 28534 28
22828 28531 28535 28
22829 28536 28537 28
22830 28536 28538 28
22831 28536 28539 28
22832 28536 28540 28
22833 28541 28542 28
22834 28541 28543 28
22835 28541 28544 28
22836 28541 28545 28
22837 28546 28547 28
22838 28546 28548 28
22839 28546 28549 28
22840 28546 28550 28
22841 28551 28552 28
22842 28551 28553 28
22843 28551 28554 28
22844 28551 28555 28
22845 28556 28557 28
22846 28556 28558 28
22847 28556 28559 28
22848 28556 28560 28
22849 28561 28562 28
22850 28561 28563 28
22851 28561 28564 28
22852 28561 28565 28
22853 28566 28567 28
22854 28566 28568 28
22855 28566 28569 28
22856 28566 28570 28
22857 28571 28572 28
22858 28571 28573 28
22859 28571 28574 28
22860 28571 28575 28
22861 28576 28577 28
22862 28576 28578 28
22863 28576 28579 28
22864 28576 28580 28
22865 28581 28582 28
22866 28581 28583 28
22867 28581 28584 28
22868 28581 28585 28
22869 28586 28587 28
22870 28586 28588 28
22871 28586 28589 28
22872 28586 28590 28
22873 28591 28592 28
22874 28591 28593 28
22875 28591 28594 28
22876 28591 28595 28
22877 28596 28597 28
22878 28596 28598 28
22879 28596 28599 28
22880 28596 28600 28
22881 28601 28602 28
22882 28601 28603 28
22883 28601 28604 28
22884 28601 28605 28
22885 28606 28607 28
22886 28606 28608 28
22887 28606 28609 28
22888 28606 28610 28
22889 28611 28612 28
22890 28611 28613 28
22891 28611 28614 28
22892 28611 28615 28
22893 28616 28617 28
22894 28616 28618 28
22895 28616 28619 28
22896 28616 28620 28
22897 28621 28622 28
22898 28621 28623 28
22899 28621 28624 28
22900 28621 28625 28
22901 28626 28627 28
22902 28626 28628 28
22903 28626 28629 28
22904 28626 28630 28
22905 28631 28632 28
22906 28631 28633 28
22907 28631 28634 28
22908 28631 28635 28
22909 28636 28637 28
22910 28636 28638 28
22911 28636 28639 28
22912 28636 28640 28
22913 28641 28642 28
22914 28641 28643 28
22915 28641 28644 28
22916 28641 28645 28
22917 28646 28647 28
22918 28646 28648 28
22919 28646 28649 28
22920 28646 28650 28
22921 28651 28652 28
22922 28651 28653 28
22923 28651 28654 28
22924 28651 28655 28
22925 28656 28657 28
22926 28656 28658 28
22927 28656 28659 28
22928 28656 28660 28
22929 28661 28662 28
22930 28661 28663 28
22931 28661 28664 28
22932 28661 28665 28
22933 28666 28667 28
22934 28666 28668 28
22935 28666 28669 28
22936 28666 28670 28
22937 28671 28672 28
22938 28671 28673 28
22939 28671 28674 28
22940 28671 28675 28
22941 28676 28677 28
22942 28676 28678 28
22943 28676 28679 28
22944 28676 28680 28
22945 28681 28682 28
22946 28681 28683 28
22947 28681 28684 28
22948 28681 28685 28
22949 28686 28687 28
22950 28686 28688 28
22951 28686 28689 28
22952 28686 28690 28
22953 28691 28692 28
22954 28691 28693 28
22955 28691 28694 28
22956 28691 28695 28
22957 28696 28697 28
22958 28696 28698 28
22959 28696 28699 28
22960 28696 28700 28
22961 28701 28702 28
22962 28701 28703 28
22963 28701 28704 28
22964 28701 28705 28
22965 28706 28707 28
22966 28706 28708 28
22967 28706 28709 28
22968 28706 28710 28
22969 28711 28712 28
22970 28711 28713 28
22971 28711 28714 28
22972 28711 28715 28
22973 28716 28717 28
22974 28716 28718 28
22975 28716 28719 28
22976 28716 28720 28
22977 28721 28722 28
22978 28721 28723 28
22979 28721 28724 28
22980 28721 28725 28
22981 28726 28727 28
22982 28726 28728 28
22983 28726 28729 28
22984 28726 28730 28
22985 28731 28732 28
22986 28731 28733 28
22987 28731 28734 28
22988 28731 28735 28
22989 28736 28737 28
22990 28736 28738 28
22991 28736 28739 28
22992 28736 28740 28
22993 28741 28742 28
22994 28741 28743 28
22995 28741 28744 28
22996 28741 28745 28
22997 28746 28747 28
22998 28746 28748 28
22999 28746 28749 28
23000 28746 28750 28
23001 28751 28752 28
23002 28751 28753 28
23003 28751 28754 28
23004 28751 28755 28
23005 28756 28757 28
23006 28756 28758 28
23007 28756 28759 28
23008 28756 28760 28
23009 28761 28762 28
23010 28761 28763 28
23011 28761 28764 28
23012 28761 28765 28
23013 28766 28767 28
23014 28766 28768 28
23015 28766 28769 28
23016 28766 28770 28
23017 28771 28772 28
23018 28771 28773 28
23019 28771 28774 28
23020 28771 28775 28
23021 28776 28777 28
23022 28776 28778 28
23023 28776 28779 28
23024 28776 28780 28
23025 28781 28782 28
23026 28781 28783 28
23027 28781 28784 28
23028 28781 28785 28
23029 28786 28787 28
23030 28786 28788 28
23031 28786 28789 28
23032 28786 28790 28
23033 28791 28792 28
23034 28791 28793 28
23035 28791 28794 28
23036 28791 28795 28
23037 28796 28797 28
23038 28796 28798 28
23039 28796 28799 28
23040 28796 28800 28
23041 28801 28802 28
23042 28801 28803 28
23043 28801 28804 28
23044 28801 28805 28
23045 28806 28807 28
23046 28806 28808 28
23047 28806 28809 28
23048 28806 28810 28
23049 28811 28812 28
23050 28811 28813 28
23051 28811 28814 28
23052 28811 28815 28
23053 28816 28817 28
23054 28816 28818 28
23055 28816 28819 28
23056 28816 28820 28
23057 28821 28822 28
23058 28821 28823 28
23059 28821 28824 28
23060 28821 28825 28
23061 28826 28827 28
23062 28826 28828 28
23063 28826 28829 28
23064 28826 28830 28
23065 28831 28832 28
23066 28831 28833 28
23067 28831 28834 28
23068 28831 28835 28
23069 28836 28837 28
23070 28836 28838 28
23071 28836 28839 28
23072 28836 28840 28
23073 28841 28842 28
23074 28841 28843 28
23075 28841 28844 28
23076 28841 28845 28
23077 28846 28847 28
23078 28846 28848 28
23079 28846 28849 28
23080 28846 28850 28
23081 28851 28852 28
23082 28851 28853 28
23083 28851 28854 28
23084 28851 28855 28
23085 28856 28857 28
23086 28856 28858 28
23087 28856 28859 28
23088 28856 28860 28
23089 28861 28862 28
23090 28861 28863 28
23091 28861 28864 28
23092 28861 28865 28
23093 28866 28867 28
23094 28866 28868 28
23095 28866 28869 28
23096 28866 28870 28
23097 28871 28872 28
23098 28871 28873 28
23099 28871 28874 28
23100 28871 28875 28
23101 28876 28877 28
23102 28876 28878 28
23103 28876 28879 28
23104 28876 28880 28
23105 28881 28882 28
23106 28881 28883 28
23107 28881 28884 28
23108 28881 28885 28
23109 28886 28887 28
23110 28886 28888 28
23111 28886 28889 28
23112 28886 28890 28
23113 28891 28892 28
23114 28891 28893 28
23115 28891 28894 28
23116 28891 28895 28
23117 28896 28897 28
23118 28896 28898 28
23119 28896 28899 28
23120 28896 28900 28
23121 28901 28902 28
23122 28901 28903 28
23123 28901 28904 28
23124 28901 28905 28
23125 28906 28907 28
23126 28906 28908 28
23127 28906 28909 28
23128 28906 28910 28
23129 28911 28912 28
23130 28911 28913 28
23131 28911 28914 28
23132 28911 28915 28
23133 28916 28917 28
23134 28916 28918 28
23135 28916 28919 28
23136 28916 28920 28
23137 28921 28922 28
23138 28921 28923 28
23139 28921 28924 28
23140 28921 28925 28
23141 28926 28927 28
23142 28926 28928 28
23143 28926 28929 28
23144 28926 28930 28
23145 28931 28932 28
23146 28931 28933 28
23147 28931 28934 28
23148 28931 28935 28
23149 28936 28937 28
23150 28936 28938 28
23151 28936 28939 28
23152 28936 28940 28
23153 28941 28942 28
23154 28941 28943 28
23155 28941 28944 28
23156 28941 28945 28
23157 28946 28947 28
23158 28946 28948 28
23159 28946 28949 28
23160 28946 28950 28
23161 28951 28952 28
23162 28951 28953 28
23163 28951 28954 28
23164 28951 28955 28
23165 28956 28957 28
23166 28956 28958 28
23167 28956 28959 28
23168 28956 28960 28
23169 28961 28962 28
23170 28961 28963 28
23171 28961 28964 28
23172 28961 28965 28
23173 28966 28967 28
23174 28966 28968 28
23175 28966 28969 28
23176 28966 28970 28
23177 28971 28972 28
23178 28971 28973 28
23179 28971 28974 28
23180 28971 28975 28
23181 28976 28977 28
23182 28976 28978 28
23183 28976 28979 28
23184 28976 28980 28
23185 28981 28982 28
23186 28981 28983 28
23187 28981 28984 28
23188 28981 28985 28
23189 28986 28987 28
23190 28986 28988 28
23191 28986 28989 28
23192 28986 28990 28
23193 28991 28992 28
23194 28991 28993 28
23195 28991 28994 28
23196 28991 28995 28
23197 28996 28997 28
23198 28996 28998 28
23199 28996 28999 28
23200 28996 29000 28
23201 29001 29002 28
23202 29001 29003 28
23203 29001 29004 28
23204 29001 29005 28
23205 29006 29007 28
23206 29006 29008 28
23207 29006 29009 28
23208 29006 29010 28
23209 29011 29012 28
23210 29011 29013 28
23211 29011 29014 28
23212 29011 29015 28
23213 29016 29017 28
23214 29016 29018 28
23215 29016 29019 28
23216 29016 29020 28
23217 29021 29022 28
23218 29021 29023 28
23219 29021 29024 28
23220 29021 29025 28
23221 29026 29027 28
23222 29026 29028 28
23223 29026 29029 28
23224 29026 29030 28
23225 29031 29032 28
23226 29031 29033 28
23227 29031 29034 28
23228 29031 29035 28
23229 29036 29037 28
23230 29036 29038 28
23231 29036 29039 28
23232 29036 29040 28
23233 29041 29042 28
23234 29041 29043 28
23235 29041 29044 28
23236 29041 29045 28
23237 29046 29047 28
23238 29046 29048 28
23239 29046 29049 28
23240 29046 29050 28
23241 29051 29052 28
23242 29051 29053 28
23243 29051 29054 28
23244 29051 29055 28
23245 29056 29057 28
23246 29056 29058 28
23247 29056 29059 28
23248 29056 29060 28
23249 29061 29062 28
23250 29061 29063 28
23251 29061 29064 28
23252 29061 29065 28
23253 29066 29067 28
23254 29066 29068 28
23255 29066 29069 28
23256 29066 29070 28
23257 29071 29072 28
23258 29071 29073 28
23259 29071 29074 28
23260 29071 29075 28
23261 29076 29077 28
23262 29076 29078 28
23263 29076 29079 28
23264 29076 29080 28
23265 29081 29082 28
23266 29081 29083 28
23267 29081 29084 28
23268 29081 29085 28
23269 29086 29087 28
23270 29086 29088 28
23271 29086 29089 28
23272 29086 29090 28
23273 29091 29092 28
23274 29091 29093 28
23275 29091 29094 28
23276 29091 29095 28
23277 29096 29097 28
23278 29096 29098 28
23279 29096 29099 28
23280 29096 29100 28
23281 29101 29102 28
23282 29101 29103 28
23283 29101 29104 28
23284 29101 29105 28
23285 29106 29107 28
23286 29106 29108 28
23287 29106 29109 28
23288 29106 29110 28
23289 29111 29112 28
23290 29111 29113 28
23291 29111 29114 28
23292 29111 29115 28
23293 29116 29117 28
23294 29116 29118 28
23295 29116 29119 28
23296 29116 29120 28
23297 29121 29122 28
23298 29121 29123 28
23299 29121 29124 28
23300 29121 29125 28
23301 29126 29127 28
23302 29126 29128 28
23303 29126 29129 28
23304 29126 29130 28
23305 29131 29132 28
23306 29131 29133 28
23307 29131 29134 28
23308 29131 29135 28
23309 29136 29137 28
23310 29136 29138 28
23311 29136 29139 28
23312 29136 29140 28
23313 29141 29142 28
23314 29141 29143 28
23315 29141 29144 28
23316 29141 29145 28
23317 29146 29147 28
23318 29146 29148 28
23319 29146 29149 28
23320 29146 29150 28
23321 29151 29152 28
23322 29151 29153 28
23323 29151 29154 28
23324 29151 29155 28
23325 29156 29157 28
23326 29156 29158 28
23327 29156 29159 28
23328 29156 29160 28
23329 29161 29162 28
23330 29161 29163 28
23331 29161 29164 28
23332 29161 29165 28
23333 29166 29167 28
23334 29166 29168 28
23335 29166 29169 28
23336 29166 29170 28
23337 29171 29172 28
23338 29171 29173 28
23339 29171 29174 28
23340 29171 29175 28
23341 29176 29177 28
23342 29176 29178 28
23343 29176 29179 28
23344 29176 29180 28
23345 29181 29182 28
23346 29181 29183 28
23347 29181 29184 28
23348 29181 29185 28
23349 29186 29187 28
23350 29186 29188 28
23351 29186 29189 28
23352 29186 29190 28
23353 29191 29192 28
23354 29191 29193 28
23355 29191 29194 28
23356 29191 29195 28
23357 29196 29197 28
23358 29196 29198 28
23359 29196 29199 28
23360 29196 29200 28
23361 29201 29202 28
23362 29201 29203 28
23363 29201 29204 28
23364 29201 29205 28
23365 29206 29207 28
23366 29206 29208 28
23367 29206 29209 28
23368 29206 29210 28
23369 29211 29212 28
23370 29211 29213 28
23371 29211 29214 28
23372 29211 29215 28
23373 29216 29217 28
23374 29216 29218 28
23375 29216 29219 28
23376 29216 29220 28
23377 29221 29222 28
23378 29221 29223 28
23379 29221 29224 28
23380 29221 29225 28
23381 29226 29227 28
23382 29226 29228 28
23383 29226 29229 28
23384 29226 29230 28
23385 29231 29232 28
23386 29231 29233 28
23387 29231 29234 28
23388 29231 29235 28
23389 29236 29237 28
23390 29236 29238 28
23391 29236 29239 28
23392 29236 29240 28
23393 29241 29242 28
23394 29241 29243 28
23395 29241 29244 28
23396 29241 29245 28
23397 29246 29247 28
23398 29246 29248 28
23399 29246 29249 28
23400 29246 29250 28
23401 29251 29252 28
23402 29251 29253 28
23403 29251 29254 28
23404 29251 29255 28
23405 29256 29257 28
23406 29256 29258 28
23407 29256 29259 28
23408 29256 29260 28
23409 29261 29262 28
23410 29261 29263 28
23411 29261 29264 28
23412 29261 29265 28
23413 29266 29267 28
23414 29266 29268 28
23415 29266 29269 28
23416 29266 29270 28
23417 29271 29272 28
23418 29271 29273 28
23419 29271 29274 28
23420 29271 29275 28
23421 29276 29277 28
23422 29276 29278 28
23423 29276 29279 28
23424 29276 29280 28
23425 29281 29282 28
23426 29281 29283 28
23427 29281 29284 28
23428 29281 29285 28
23429 29286 29287 28
23430 29286 29288 28
23431 29286 29289 28
23432 29286 29290 28
23433 29291 29292 28
23434 29291 29293 28
23435 29291 29294 28
23436 29291 29295 28
23437 29296 29297 28
23438 29296 29298 28
23439 29296 29299 28
23440 29296 29300 28
23441 29301 29302 28
23442 29301 29303 28
23443 29301 29304 28
23444 29301 29305 28
23445 29306 29307 28
23446 29306 29308 28
23447 29306 29309 28
23448 29306 29310 28
23449 29311 29312 28
23450 29311 29313 28
23451 29311 29314 28
23452 29311 29315 28
23453 29316 29317 28
23454 29316 29318 28
23455 29316 29319 28
23456 29316 29320 28
23457 29321 29322 28
23458 29321 29323 28
23459 29321 29324 28
23460 29321 29325 28
23461 29326 29327 28
23462 29326 29328 28
23463 29326 29329 28
23464 29326 29330 28
23465 29331 29332 28
23466 29331 29333 28
23467 29331 29334 28
23468 29331 29335 28
23469 29336 29337 28
23470 29336 29338 28
23471 29336 29339 28
23472 29336 29340 28
23473 29341 29342 28
23474 29341 29343 28
23475 29341 29344 28
23476 29341 29345 28
23477 29346 29347 28
23478 29346 29348 28
23479 29346 29349 28
23480 29346 29350 28
23481 29351 29352 28
23482 29351 29353 28
23483 29351 29354 28
23484 29351 29355 28
23485 29356 29357 28
23486 29356 29358 28
23487 29356 29359 28
23488 29356 29360 28
23489 29361 29362 28
23490 29361 29363 28
23491 29361 29364 28
23492 29361 29365 28
23493 29366 29367 28
23494 29366 29368 28
23495 29366 29369 28
23496 29366 29370 28
23497 29371 29372 28
23498 29371 29373 28
23499 29371 29374 28
23500 29371 29375 28
23501 29376 29377 28
23502 29376 29378 28
23503 29376 29379 28
23504 29376 29380 28
23505 29381 29382 28
23506 29381 29383 28
23507 29381 29384 28
23508 29381 29385 28
23509 29386 29387 28
23510 29386 29388 28
23511 29386 29389 28
23512 29386 29390 28
23513 29391 29392 28
23514 29391 29393 28
23515 29391 29394 28
23516 29391 29395 28
23517 29396 29397 28
23518 29396 29398 28
23519 29396 29399 28
23520 29396 29400 28
23521 29401 29402 28
23522 29401 29403 28
23523 29401 29404 28
23524 29401 29405 28
23525 29406 29407 28
23526 29406 29408 28
23527 29406 29409 28
23528 29406 29410 28
23529 29411 29412 28
23530 29411 29413 28
23531 29411 29414 28
23532 29411 29415 28
23533 29416 29417 28
23534 29416 29418 28
23535 29416 29419 28
23536 29416 29420 28
23537 29421 29422 28
23538 29421 29423 28
23539 29421 29424 28
23540 29421 29425 28
23541 29426 29427 28
23542 29426 29428 28
23543 29426 29429 28
23544 29426 29430 28
23545 29431 29432 28
23546 29431 29433 28
23547 29431 29434 28
23548 29431 29435 28
23549 29436 29437 28
23550 29436 29438 28
23551 29436 29439 28
23552 29436 29440 28
23553 29441 29442 28
23554 29441 29443 28
23555 29441 29444 28
23556 29441 29445 28
23557 29446 29447 28
23558 29446 29448 28
23559 29446 29449 28
23560 29446 29450 28
23561 29451 29452 28
23562 29451 29453 28
23563 29451 29454 28
23564 29451 29455 28
23565 29456 29457 28
23566 29456 29458 28
23567 29456 29459 28
23568 29456 29460 28
23569 29461 29462 28
23570 29461 29463 28
23571 29461 29464 28
23572 29461 29465 28
23573 29466 29467 28
23574 29466 29468 28
23575 29466 29469 28
23576 29466 29470 28
23577 29471 29472 28
23578 29471 29473 28
23579 29471 29474 28
23580 29471 29475 28
23581 29476 29477 28
23582 29476 29478 28
23583 29476 29479 28
23584 29476 29480 28
23585 29481 29482 28
23586 29481 29483 28
23587 29481 29484 28
23588 29481 29485 28
23589 29486 29487 28
23590 29486 29488 28
23591 29486 29489 28
23592 29486 29490 28
23593 29491 29492 28
23594 29491 29493 28
23595 29491 29494 28
23596 29491 29495 28
23597 29496 29497 28
23598 29496 29498 28
23599 29496 29499 28
23600 29496 29500 28
23601 29501 29502 28
23602 29501 29503 28
23603 29501 29504 28
23604 29501 29505 28
23605 29506 29507 28
23606 29506 29508 28
23607 29506 29509 28
23608 29506 29510 28
23609 29511 29512 28
23610 29511 29513 28
23611 29511 29514 28
23612 29511 29515 28
23613 29516 29517 28
23614 29516 29518 28
23615 29516 29519 28
23616 29516 29520 28
23617 29521 29522 28
23618 29521 29523 28
23619 29521 29524 28
23620 29521 29525 28
23621 29526 29527 28
23622 29526 29528 28
23623 29526 29529 28
23624 29526 29530 28
23625 29531 29532 28
23626 29531 29533 28
23627 29531 29534 28
23628 29531 29535 28
23629 29536 29537 28
23630 29536 29538 28
23631 29536 29539 28
23632 29536 29540 28
23633 29541 29542 28
23634 29541 29543 28
23635 29541 29544 28
23636 29541 29545 28
23637 29546 29547 28
23638 29546 29548 28
23639 29546 29549 28
23640 29546 29550 28
23641 29551 29552 28
23642 29551 29553 28
23643 29551 29554 28
23644 29551 29555 28
23645 29556 29557 28
23646 29556 29558 28
23647 29556 29559 28
23648 29556 29560 28
23649 29561 29562 28
23650 29561 29563 28
23651 29561 29564 28
23652 29561 29565 28
23653 29566 29567 28
23654 29566 29568 28
23655 29566 29569 28
23656 29566 29570 28
23657 29571 29572 28
23658 29571 29573 28
23659 29571 29574 28
23660 29571 29575 28
23661 29576 29577 28
23662 29576 29578 28
23663 29576 29579 28
23664 29576 29580 28
23665 29581 29582 28
23666 29581 29583 28
23667 29581 29584 28
23668 29581 29585 28
23669 29586 29587 28
23670 29586 29588 28
23671 29586 29589 28
23672 29586 29590 28
23673 29591 29592 28
23674 29591 29593 28
23675 29591 29594 28
23676 29591 29595 28
23677 29596 29597 28
23678 29596 29598 28
23679 29596 29599 28
23680 29596 29600 28
23681 29601 29602 28
23682 29601 29603 28
23683 29601 29604 28
23684 29601 29605 28
23685 29606 29607 28
23686 29606 29608 28
23687 29606 29609 28
23688 29606 29610 28
23689 29611 29612 28
23690 29611 29613 28
23691 29611 29614 28
23692 29611 29615 28
23693 29616 29617 28
23694 29616 29618 28
23695 29616 29619 28
23696 29616 29620 28
23697 29621 29622 28
23698 29621 29623 28
23699 29621 29624 28
23700 29621 29625 28
23701 29626 29627 28
23702 29626 29628 28
23703 29626 29629 28
23704 29626 29630 28
23705 29631 29632 28
23706 29631 29633 28
23707 29631 29634 28
23708 29631 29635 28
23709 29636 29637 28
23710 29636 29638 28
23711 29636 29639 28
23712 29636 29640 28
23713 29641 29642 28
23714 29641 29643 28
23715 29641 29644 28
23716 29641 29645 28
23717 29646 29647 28
23718 29646 29648 28
23719 29646 29649 28
23720 29646 29650 28
23721 29651 29652 28
23722 29651 29653 28
23723 29651 29654 28
23724 29651 29655 28
23725 29656 29657 28
23726 29656 29658 28
23727 29656 29659 28
23728 29656 29660 28
23729 29661 29662 28
23730 29661 29663 28
23731 29661 29664 28
23732 29661 29665 28
23733 29666 29667 28
23734 29666 29668 28
23735 29666 29669 28
23736 29666 29670 28
23737 29671 29672 28
23738 29671 29673 28
23739 29671 29674 28
23740 29671 29675 28
23741 29676 29677 28
23742 29676 29678 28
23743 29676 29679 28
23744 29676 29680 28
23745 29681 29682 28
23746 29681 29683 28
23747 29681 29684 28
23748 29681 29685 28
23749 29686 29687 28
23750 29686 29688 28
23751 29686 29689 28
23752 29686 29690 28
23753 29691 29692 28
23754 29691 29693 28
23755 29691 29694 28
23756 29691 29695 28
23757 29696 29697 28
23758 29696 29698 28
23759 29696 29699 28
23760 29696 29700 28
23761 29701 29702 28
23762 29701 29703 28
23763 29701 29704 28
23764 29701 29705 28
23765 29706 29707 28
23766 29706 29708 28
23767 29706 29709 28
23768 29706 29710 28
23769 29711 29712 28
23770 29711 29713 28
23771 29711 29714 28
23772 29711 29715 28
23773 29716 29717 28
23774 29716 29718 28
23775 29716 29719 28
23776 29716 29720 28
23777 29721 29722 28
23778 29721 29723 28
23779 29721 29724 28
23780 29721 29725 28
23781 29726 29727 28
23782 29726 29728 28
23783 29726 29729 28
23784 29726 29730 28
23785 29731 29732 28
23786 29731 29733 28
23787 29731 29734 28
23788 29731 29735 28
23789 29736 29737 28
23790 29736 29738 28
23791 29736 29739 28
23792 29736 29740 28
23793 29741 29742 28
23794 29741 29743 28
23795 29741 29744 28
23796 29741 29745 28
23797 29746 29747 28
23798 29746 29748 28
23799 29746 29749 28
23800 29746 29750 28
23801 29751 29752 28
23802 29751 29753 28
23803 29751 29754 28
23804 29751 29755 28
23805 29756 29757 28
23806 29756 29758 28
23807 29756 29759 28
23808 29756 29760 28
23809 29761 29762 28
23810 29761 29763 28
23811 29761 29764 28
23812 29761 29765 28
23813 29766 29767 28
23814 29766 29768 28
23815 29766 29769 28
23816 29766 29770 28
23817 29771 29772 28
23818 29771 29773 28
23819 29771 29774 28
23820 29771 29775 28
23821 29776 29777 28
23822 29776 29778 28
23823 29776 29779 28
23824 29776 29780 28
23825 29781 29782 28
23826 29781 29783 28
23827 29781 29784 28
23828 29781 29785 28
23829 29786 29787 28
23830 29786 29788 28
23831 29786 29789 28
23832 29786 29790 28
23833 29791 29792 28
23834 29791 29793 28
23835 29791 29794 28
23836 29791 29795 28
23837 29796 29797 28
23838 29796 29798 28
23839 29796 29799 28
23840 29796 29800 28
23841 29801 29802 28
23842 29801 29803 28
23843 29801 29804 28
23844 29801 29805 28
23845 29806 29807 28
23846 29806 29808 28
23847 29806 29809 28
23848 29806 29810 28
23849 29811 29812 28
23850 29811 29813 28
23851 29811 29814 28
23852 29811 29815 28
23853 29816 29817 28
23854 29816 29818 28
23855 29816 29819 28
23856 29816 29820 28
23857 29821 29822 28
23858 29821 29823 28
23859 29821 29824 28
23860 29821 29825 28
23861 29826 29827 28
23862 29826 29828 28
23863 29826 29829 28
23864 29826 29830 28
23865 29831 29832 28
23866 29831 29833 28
23867 29831 29834 28
23868 29831 29835 28
23869 29836 29837 28
23870 29836 29838 28
23871 29836 29839 28
23872 29836 29840 28
23873 29841 29842 28
23874 29841 29843 28
23875 29841 29844 28
23876 29841 29845 28
23877 29846 29847 28
23878 29846 29848 28
23879 29846 29849 28
23880 29846 29850 28
23881 29851 29852 28
23882 29851 29853 28
23883 29851 29854 28
23884 29851 29855 28
23885 29856 29857 28
23886 29856 29858 28
23887 29856 29859 28
23888 29856 29860 28
23889 29861 29862 28
23890 29861 29863 28
23891 29861 29864 28
23892 29861 29865 28
23893 29866 29867 28
23894 29866 29868 28
23895 29866 29869 28
23896 29866 29870 28
23897 29871 29872 28
23898 29871 29873 28
23899 29871 29874 28
23900 29871 29875 28
23901 29876 29877 28
23902 29876 29878 28
23903 29876 29879 28
23904 29876 29880 28
23905 29881 29882 28
23906 29881 29883 28
23907 29881 29884 28
23908 29881 29885 28
23909 29886 29887 28
23910 29886 29888 28
23911 29886 29889 28
23912 29886 29890 28
23913 29891 29892 28
23914 29891 29893 28
23915 29891 29894 28
23916 29891 29895 28
23917 29896 29897 28
23918 29896 29898 28
23919 29896 29899 28
23920 29896 29900 28
23921 29901 29902 28
23922 29901 29903 28
23923 29901 29904 28
23924 29901 29905 28
23925 29906 29907 28
23926 29906 29908 28
23927 29906 29909 28
23928 29906 29910 28
23929 29911 29912 28
23930 29911 29913 28
23931 29911 29914 28
23932 29911 29915 28
23933 29916 29917 28
23934 29916 29918 28
23935 29916 29919 28
23936 29916 29920 28
23937 29921 29922 28
23938 29921 29923 28
23939 29921 29924 28
23940 29921 29925 28
23941 29926 29927 28
23942 29926 29928 28
23943 29926 29929 28
23944 29926 29930 28
23945 29931 29932 28
23946 29931 29933 28
23947 29931 29934 28
23948 29931 29935 28
23949 29936 29937 28
23950 29936 29938 28
23951 29936 29939 28
23952 29936 29940 28
23953 29941 29942 28
23954 29941 29943 28
23955 29941 29944 28
23956 29941 29945 28
23957 29946 29947 28
23958 29946 29948 28
23959 29946 29949 28
23960 29946 29950 28
23961 29951 29952 28
23962 29951 29953 28
23963 29951 29954 28
23964 29951 29955 28
23965 29956 29957 28
23966 29956 29958 28
23967 29956 29959 28
23968 29956 29960 28
23969 29961 29962 28
23970 29961 29963 28
23971 29961 29964 28
23972 29961 29965 28
23973 29966 29967 28
23974 29966 29968 28
23975 29966 29969 28
23976 29966 29970 28
23977 29971 29972 28
23978 29971 29973 28
23979 29971 29974 28
23980 29971 29975 28
23981 29976 29977 28
23982 29976 29978 28
23983 29976 29979 28
23984 29976 29980 28
23985 29981 29982 28
23986 29981 29983 28
23987 29981 29984 28
23988 29981 29985 28
23989 29986 29987 28
23990 29986 29988 28
23991 29986 29989 28
23992 29986 29990 28
23993 29991 29992 28
23994 29991 29993 28
23995 29991 29994 28
23996 29991 29995 28
23997 29996 29997 28
23998 29996 29998 28
23999 29996 29999 28
24000 29996 30000 28
24001 30001 30002 28
24002 30001 30003 28
24003 30001 30004 28
24004 30001 30005 28
24005 30006 30007 28
24006 30006 30008 28
24007 30006 30009 28
24008 30006 30010 28
24009 30011 30012 28
24010 30011 30013 28
24011 30011 30014 28
24012 30011 30015 28
24013 30016 30017 28
24014 30016 30018 28
24015 30016 30019 28
24016 30016 30020 28
24017 30021 30022 28
24018 30021 30023 28
24019 30021 30024 28
24020 30021 30025 28
24021 30026 30027 28
24022 30026 30028 28
24023 30026 30029 28
24024 30026 30030 28
24025 30031 30032 28
24026 30031 30033 28
24027 30031 30034 28
24028 30031 30035 28
24029 30036 30037 28
24030 30036 30038 28
24031 30036 30039 28
24032 30036 30040 28
24033 30041 30042 28
24034 30041 30043 28
24035 30041 30044 28
24036 30041 30045 28
24037 30046 30047 28
24038 30046 30048 28
24039 30046 30049 28
24040 30046 30050 28
24041 30051 30052 28
24042 30051 30053 28
24043 30051 30054 28
24044 30051 30055 28
24045 30056 30057 28
24046 30056 30058 28
24047 30056 30059 28
24048 30056 30060 28
24049 30061 30062 28
24050 30061 30063 28
24051 30061 30064 28
24052 30061 30065 28
24053 30066 30067 28
24054 30066 30068 28
24055 30066 30069 28
24056 30066 30070 28
24057 30071 30072 28
24058 30071 30073 28
24059 30071 30074 28
24060 30071 30075 28
24061 30076 30077 28
24062 30076 30078 28
24063 30076 30079 28
24064 30076 30080 28
24065 30081 30082 28
24066 30081 30083 28
24067 30081 30084 28
24068 30081 30085 28
24069 30086 30087 28
24070 30086 30088 28
24071 30086 30089 28
24072 30086 30090 28
24073 30091 30092 28
24074 30091 30093 28
24075 30091 30094 28
24076 30091 30095 28
24077 30096 30097 28
24078 30096 30098 28
24079 30096 30099 28
24080 30096 30100 28
24081 30101 30102 28
24082 30101 30103 28
24083 30101 30104 28
24084 30101 30105 28
24085 30106 30107 28
24086 30106 30108 28
24087 30106 30109 28
24088 30106 30110 28
24089 30111 30112 28
24090 30111 30113 28
24091 30111 30114 28
24092 30111 30115 28
24093 30116 30117 28
24094 30116 30118 28
24095 30116 30119 28
24096 30116 30120 28
24097 30121 30122 28
24098 30121 30123 28
24099 30121 30124 28
24100 30121 30125 28
24101 30126 30127 28
24102 30126 30128 28
24103 30126 30129 28
24104 30126 30130 28
24105 30131 30132 28
24106 30131 30133 28
24107 30131 30134 28
24108 30131 30135 28
24109 30136 30137 28
24110 30136 30138 28
24111 30136 30139 28
24112 30136 30140 28
24113 30141 30142 28
24114 30141 30143 28
24115 30141 30144 28
24116 30141 30145 28
24117 30146 30147 28
24118 30146 30148 28
24119 30146 30149 28
24120 30146 30150 28
24121 30151 30152 28
24122 30151 30153 28
24123 30151 30154 28
24124 30151 30155 28
24125 30156 30157 28
24126 30156 30158 28
24127 30156 30159 28
24128 30156 30160 28
24129 30161 30162 28
24130 30161 30163 28
24131 30161 30164 28
24132 30161 30165 28
24133 30166 30167 28
24134 30166 30168 28
24135 30166 30169 28
24136 30166 30170 28
24137 30171 30172 28
24138 30171 30173 28
24139 30171 30174 28
24140 30171 30175 28
24141 30176 30177 28
24142 30176 30178 28
24143 30176 30179 28
24144 30176 30180 28
24145 30181 30182 28
24146 30181 30183 28
24147 30181 30184 28
24148 30181 30185 28
24149 30186 30187 28
24150 30186 30188 28
24151 30186 30189 28
24152 30186 30190 28
24153 30191 30192 28
24154 30191 30193 28
24155 30191 30194 28
24156 30191 30195 28
24157 30196 30197 28
24158 30196 30198 28
24159 30196 30199 28
24160 30196 30200 28
24161 30201 30202 28
24162 30201 30203 28
24163 30201 30204 28
24164 30201 30205 28
24165 30206 30207 28
24166 30206 30208 28
24167 30206 30209 28
24168 30206 30210 28
24169 30211 30212 28
24170 30211 30213 28
24171 30211 30214 28
24172 30211 30215 28
24173 30216 30217 28
24174 30216 30218 28
24175 30216 30219 28
24176 30216 30220 28
24177 30221 30222 28
24178 30221 30223 28
24179 30221 30224 28
24180 30221 30225 28
24181 30226 30227 28
24182 30226 30228 28
24183 30226 30229 28
24184 30226 30230 28
24185 30231 30232 28
24186 30231 30233 28
24187 30231 30234 28
24188 30231 30235 28
24189 30236 30237 28
24190 30236 30238 28
24191 30236 30239 28
24192 30236 30240 28
24193 30241 30242 28
24194 30241 30243 28
24195 30241 30244 28
24196 30241 30245 28
24197 30246 30247 28
24198 30246 30248 28
24199 30246 30249 28
24200 30246 30250 28
24201 30251 30252 28
24202 30251 30253 28
24203 30251 30254 28
24204 30251 30255 28
24205 30256 30257 28
24206 30256 30258 28
24207 30256 30259 28
24208 30256 30260 28
24209 30261 30262 28
24210 30261 30263 28
24211 30261 30264 28
24212 30261 30265 28
24213 30266 30267 28
24214 30266 30268 28
24215 30266 30269 28
24216 30266 30270 28
24217 30271 30272 28
24218 30271 30273 28
24219 30271 30274 28
24220 30271 30275 28
24221 30276 30277 28
24222 30276 30278 28
24223 30276 30279 28
24224 30276 30280 28
24225 30281 30282 28
24226 30281 30283 28
24227 30281 30284 28
24228 30281 30285 28
24229 30286 30287 28
24230 30286 30288 28
24231 30286 30289 28
24232 30286 30290 28
24233 30291 30292 28
24234 30291 30293 28
24235 30291 30294 28
24236 30291 30295 28
24237 30296 30297 28
24238 30296 30298 28
24239 30296 30299 28
24240 30296 30300 28
24241 30301 30302 28
24242 30301 30303 28
24243 30301 30304 28
24244 30301 30305 28
24245 30306 30307 28
24246 30306 30308 28
24247 30306 30309 28
24248 30306 30310 28
24249 30311 30312 28
24250 30311 30313 28
24251 30311 30314 28
24252 30311 30315 28
24253 30316 30317 28
24254 30316 30318 28
24255 30316 30319 28
24256 30316 30320 28
24257 30321 30322 28
24258 30321 30323 28
24259 30321 30324 28
24260 30321 30325 28
24261 30326 30327 28
24262 30326 30328 28
24263 30326 30329 28
24264 30326 30330 28
24265 30331 30332 28
24266 30331 30333 28
24267 30331 30334 28
24268 30331 30335 28
24269 30336 30337 28
24270 30336 30338 28
24271 30336 30339 28
24272 30336 30340 28
24273 30341 30342 28
24274 30341 30343 28
24275 30341 30344 28
24276 30341 30345 28
24277 30346 30347 28
24278 30346 30348 28
24279 30346 30349 28
24280 30346 30350 28
24281 30351 30352 28
24282 30351 30353 28
24283 30351 30354 28
24284 30351 30355 28
24285 30356 30357 28
24286 30356 30358 28
24287 30356 30359 28
24288 30356 30360 28
24289 30361 30362 28
24290 30361 30363 28
24291 30361 30364 28
24292 30361 30365 28
24293 30366 30367 28
24294 30366 30368 28
24295 30366 30369 28
24296 30366 30370 28
24297 30371 30372 28
24298 30371 30373 28
24299 30371 30374 28
24300 30371 30375 28
24301 30376 30377 28
24302 30376 30378 28
24303 30376 30379 28
24304 30376 30380 28
24305 30381 30382 28
24306 30381 30383 28
24307 30381 30384 28
24308 30381 30385 28
24309 30386 30387 28
24310 30386 30388 28
24311 30386 30389 28
24312 30386 30390 28
24313 30391 30392 28
24314 30391 30393 28
24315 30391 30394 28
24316 30391 30395 28
24317 30396 30397 28
24318 30396 30398 28
24319 30396 30399 28
24320 30396 30400 28
24321 30401 30402 28
24322 30401 30403 28
24323 30401 30404 28
24324 30401 30405 28
24325 30406 30407 28
24326 30406 30408 28
24327 30406 30409 28
24328 30406 30410 28
24329 30411 30412 28
24330 30411 30413 28
24331 30411 30414 28
24332 30411 30415 28
24333 30416 30417 28
24334 30416 30418 28
24335 30416 30419 28
24336 30416 30420 28
24337 30421 30422 28
24338 30421 30423 28
24339 30421 30424 28
24340 30421 30425 28
24341 30426 30427 28
24342 30426 30428 28
24343 30426 30429 28
24344 30426 30430 28
24345 30431 30432 28
24346 30431 30433 28
24347 30431 30434 28
24348 30431 30435 28
24349 30436 30437 28
24350 30436 30438 28
24351 30436 30439 28
24352 30436 30440 28
24353 30441 30442 28
24354 30441 30443 28
24355 30441 30444 28
24356 30441 30445 28
24357 30446 30447 28
24358 30446 30448 28
24359 30446 30449 28
24360 30446 30450 28
24361 30451 30452 28
24362 30451 30453 28
24363 30451 30454 28
24364 30451 30455 28
24365 30456 30457 28
24366 30456 30458 28
24367 30456 30459 28
24368 30456 30460 28
24369 30461 30462 28
24370 30461 30463 28
24371 30461 30464 28
24372 30461 30465 28
24373 30466 30467 28
24374 30466 30468 28
24375 30466 30469 28
24376 30466 30470 28
24377 30471 30472 28
24378 30471 30473 28
24379 30471 30474 28
24380 30471 30475 28
24381 30476 30477 28
24382 30476 30478 28
24383 30476 30479 28
24384 30476 30480 28
24385 30481 30482 28
24386 30481 30483 28
24387 30481 30484 28
24388 30481 30485 28
24389 30486 30487 28
24390 30486 30488 28
24391 30486 30489 28
24392 30486 30490 28
24393 30491 30492 28
24394 30491 30493 28
24395 30491 30494 28
24396 30491 30495 28
24397 30496 30497 28
24398 30496 30498 28
24399 30496 30499 28
24400 30496 30500 28
24401 30501 30502 28
24402 30501 30503 28
24403 30501 30504 28
24404 30501 30505 28
24405 30506 30507 28
24406 30506 30508 28
24407 30506 30509 28
24408 30506 30510 28
24409 30511 30512 28
24410 30511 30513 28
24411 30511 30514 28
24412 30511 30515 28
24413 30516 30517 28
24414 30516 30518 28
24415 30516 30519 28
24416 30516 30520 28
24417 30521 30522 28
24418 30521 30523 28
24419 30521 30524 28
24420 30521 30525 28
24421 30526 30527 28
24422 30526 30528 28
24423 30526 30529 28
24424 30526 30530 28
24425 30531 30532 28
24426 30531 30533 28
24427 30531 30534 28
24428 30531 30535 28
24429 30536 30537 28
24430 30536 30538 28
24431 30536 30539 28
24432 30536 30540 28
24433 30541 30542 28
24434 30541 30543 28
24435 30541 30544 28
24436 30541 30545 28
24437 30546 30547 28
24438 30546 30548 28
24439 30546 30549 28
24440 30546 30550 28
24441 30551 30552 28
24442 30551 30553 28
24443 30551 30554 28
24444 30551 30555 28
24445 30556 30557 28
24446 30556 30558 28
24447 30556 30559 28
24448 30556 30560 28
24449 30561 30562 28
24450 30561 30563 28
24451 30561 30564 28
24452 30561 30565 28
24453 30566 30567 28
24454 30566 30568 28
24455 30566 30569 28
24456 30566 30570 28
24457 30571 30572 28
24458 30571 30573 28
24459 30571 30574 28
24460 30571 30575 28
24461 30576 30577 28
24462 30576 30578 28
24463 30576 30579 28
24464 30576 30580 28
24465 30581 30582 28
24466 30581 30583 28
24467 30581 30584 28
24468 30581 30585 28
24469 30586 30587 28
24470 30586 30588 28
24471 30586 30589 28
24472 30586 30590 28
24473 30591 30592 28
24474 30591 30593 28
24475 30591 30594 28
24476 30591 30595 28
24477 30596 30597 28
24478 30596 30598 28
24479 30596 30599 28
24480 30596 30600 28
24481 30601 30602 28
24482 30601 30603 28
24483 30601 30604 28
24484 30601 30605 28
24485 30606 30607 28
24486 30606 30608 28
24487 30606 30609 28
24488 30606 30610 28
24489 30611 30612 28
24490 30611 30613 28
24491 30611 30614 28
24492 30611 30615 28
24493 30616 30617 28
24494 30616 30618 28
24495 30616 30619 28
24496 30616 30620 28
24497 30621 30622 28
24498 30621 30623 28
24499 30621 30624 28
24500 30621 30625 28
24501 30626 30627 28
24502 30626 30628 28
24503 30626 30629 28
24504 30626 30630 28
24505 30631 30632 28
24506 30631 30633 28
24507 30631 30634 28
24508 30631 30635 28
24509 30636 30637 28
24510 30636 30638 28
24511 30636 30639 28
24512 30636 30640 28
24513 30641 30642 28
24514 30641 30643 28
24515 30641 30644 28
24516 30641 30645 28
24517 30646 30647 28
24518 30646 30648 28
24519 30646 30649 28
24520 30646 30650 28
24521 30651 30652 28
24522 30651 30653 28
24523 30651 30654 28
24524 30651 30655 28
24525 30656 30657 28
24526 30656 30658 28
24527 30656 30659 28
24528 30656 30660 28
24529 30661 30662 28
24530 30661 30663 28
24531 30661 30664 28
24532 30661 30665 28
24533 30666 30667 28
24534 30666 30668 28
24535 30666 30669 28
24536 30666 30670 28
24537 30671 30672 28
24538 30671 30673 28
24539 30671 30674 28
24540 30671 30675 28
24541 30676 30677 28
24542 30676 30678 28
24543 30676 30679 28
24544 30676 30680 28
24545 30681 30682 28
24546 30681 30683 28
24547 30681 30684 28
24548 30681 30685 28
24549 30686 30687 28
24550 30686 30688 28
24551 30686 30689 28
24552 30686 30690 28
24553 30691 30692 28
24554 30691 30693 28
24555 30691 30694 28
24556 30691 30695 28
24557 30696 30697 28
24558 30696 30698 28
24559 30696 30699 28
24560 30696 30700 28
24561 30701 30702 28
24562 30701 30703 28
24563 30701 30704 28
24564 30701 30705 28
24565 30706 30707 28
24566 30706 30708 28
24567 30706 30709 28
24568 30706 30710 28
24569 30711 30712 28
24570 30711 30713 28
24571 30711 30714 28
24572 30711 30715 28
24573 30716 30717 28
24574 30716 30718 28
24575 30716 30719 28
24576 30716 30720 28
24577 30721 30722 28
24578 30721 30723 28
24579 30721 30724 28
24580 30721 30725 28
24581 30726 30727 28
24582 30726 30728 28
24583 30726 30729 28
24584 30726 30730 28
24585 30731 30732 28
24586 30731 30733 28
24587 30731 30734 28
24588 30731 30735 28
24589 30736 30737 28
24590 30736 30738 28
24591 30736 30739 28
24592 30736 30740 28
24593 30741 30742 28
24594 30741 30743 28
24595 30741 30744 28
24596 30741 30745 28
24597 30746 30747 28
24598 30746 30748 28
24599 30746 30749 28
24600 30746 30750 28
24601 30751 30752 28
24602 30751 30753 28
24603 30751 30754 28
24604 30751 30755 28
24605 30756 30757 28
24606 30756 30758 28
24607 30756 30759 28
24608 30756 30760 28
24609 30761 30762 28
24610 30761 30763 28
24611 30761 30764 28
24612 30761 30765 28
24613 30766 30767 28
24614 30766 30768 28
24615 30766 30769 28
24616 30766 30770 28
24617 30771 30772 28
24618 30771 30773 28
24619 30771 30774 28
24620 30771 30775 28
24621 30776 30777 28
24622 30776 30778 28
24623 30776 30779 28
24624 30776 30780 28
24625 30781 30782 28
24626 30781 30783 28
24627 30781 30784 28
24628 30781 30785 28
24629 30786 30787 28
24630 30786 30788 28
24631 30786 30789 28
24632 30786 30790 28
24633 30791 30792 28
24634 30791 30793 28
24635 30791 30794 28
24636 30791 30795 28
24637 30796 30797 28
24638 30796 30798 28
24639 30796 30799 28
24640 30796 30800 28
24641 30801 30802 28
24642 30801 30803 28
24643 30801 30804 28
24644 30801 30805 28
24645 30806 30807 28
24646 30806 30808 28
24647 30806 30809 28
24648 30806 30810 28
24649 30811 30812 28
24650 30811 30813 28
24651 30811 30814 28
24652 30811 30815 28
24653 30816 30817 28
24654 30816 30818 28
24655 30816 30819 28
24656 30816 30820 28
24657 30821 30822 28
24658 30821 30823 28
24659 30821 30824 28
24660 30821 30825 28
24661 30826 30827 28
24662 30826 30828 28
24663 30826 30829 28
24664 30826 30830 28
24665 30831 30832 28
24666 30831 30833 28
24667 30831 30834 28
24668 30831 30835 28
24669 30836 30837 28
24670 30836 30838 28
24671 30836 30839 28
24672 30836 30840 28
24673 30841 30842 28
24674 30841 30843 28
24675 30841 30844 28
24676 30841 30845 28
24677 30846 30847 28
24678 30846 30848 28
24679 30846 30849 28
24680 30846 30850 28
24681 30851 30852 28
24682 30851 30853 28
24683 30851 30854 28
24684 30851 30855 28
24685 30856 30857 28
24686 30856 30858 28
24687 30856 30859 28
24688 30856 30860 28
24689 30861 30862 28
24690 30861 30863 28
24691 30861 30864 28
24692 30861 30865 28
24693 30866 30867 28
24694 30866 30868 28
24695 30866 30869 28
24696 30866 30870 28
24697 30871 30872 28
24698 30871 30873 28
24699 30871 30874 28
24700 30871 30875 28
24701 30876 30877 28
24702 30876 30878 28
24703 30876 30879 28
24704 30876 30880 28
24705 30881 30882 28
24706 30881 30883 28
24707 30881 30884 28
24708 30881 30885 28
24709 30886 30887 28
24710 30886 30888 28
24711 30886 30889 28
24712 30886 30890 28
24713 30891 30892 28
24714 30891 30893 28
24715 30891 30894 28
24716 30891 30895 28
24717 30896 30897 28
24718 30896 30898 28
24719 30896 30899 28
24720 30896 30900 28
24721 30901 30902 28
24722 30901 30903 28
24723 30901 30904 28
24724 30901 30905 28
24725 30906 30907 28
24726 30906 30908 28
24727 30906 30909 28
24728 30906 30910 28
24729 30911 30912 28
24730 30911 30913 28
24731 30911 30914 28
24732 30911 30915 28
24733 30916 30917 28
24734 30916 30918 28
24735 30916 30919 28
24736 30916 30920 28
24737 30921 30922 28
24738 30921 30923 28
24739 30921 30924 28
24740 30921 30925 28
24741 30926 30927 28
24742 30926 30928 28
24743 30926 30929 28
24744 30926 30930 28
24745 30931 30932 28
24746 30931 30933 28
24747 30931 30934 28
24748 30931 30935 28
24749 30936 30937 28
24750 30936 30938 28
24751 30936 30939 28
24752 30936 30940 28
24753 30941 30942 28
24754 30941 30943 28
24755 30941 30944 28
24756 30941 30945 28
24757 30946 30947 28
24758 30946 30948 28
24759 30946 30949 28
24760 30946 30950 28
24761 30951 30952 28
24762 30951 30953 28
24763 30951 30954 28
24764 30951 30955 28
24765 30956 30957 28
24766 30956 30958 28
24767 30956 30959 28
24768 30956 30960 28
24769 30961 30962 28
24770 30961 30963 28
24771 30961 30964 28
24772 30961 30965 28
24773 30966 30967 28
24774 30966 30968 28
24775 30966 30969 28
24776 30966 30970 28
24777 30971 30972 28
24778 30971 30973 28
24779 30971 30974 28
24780 30971 30975 28
24781 30976 30977 28
24782 30976 30978 28
24783 30976 30979 28
24784 30976 30980 28
24785 30981 30982 28
24786 30981 30983 28
24787 30981 30984 28
24788 30981 30985 28
24789 30986 30987 28
24790 30986 30988 28
24791 30986 30989 28
24792 30986 30990 28
24793 30991 30992 28
24794 30991 30993 28
24795 30991 30994 28
24796 30991 30995 28
24797 30996 30997 28
24798 30996 30998 28
24799 30996 30999 28
24800 30996 31000 28
24801 31001 31002 28
24802 31001 31003 28
24803 31001 31004 28
24804 31001 31005 28
24805 31006 31007 28
24806 31006 31008 28
24807 31006 31009 28
24808 31006 31010 28
24809 31011 31012 28
24810 31011 31013 28
24811 31011 31014 28
24812 31011 31015 28
24813 31016 31017 28
24814 31016 31018 28
24815 31016 31019 28
24816 31016 31020 28
24817 31021 31022 28
24818 31021 31023 28
24819 31021 31024 28
24820 31021 31025 28
24821 31026 31027 28
24822 31026 31028 28
24823 31026 31029 28
24824 31026 31030 28
24825 31031 31032 28
24826 31031 31033 28
24827 31031 31034 28
24828 31031 31035 28
24829 31036 31037 28
24830 31036 31038 28
24831 31036 31039 28
24832 31036 31040 28
24833 31041 31042 28
24834 31041 31043 28
24835 31041 31044 28
24836 31041 31045 28
24837 31046 31047 28
24838 31046 31048 28
24839 31046 31049 28
24840 31046 31050 28
24841 31051 31052 28
24842 31051 31053 28
24843 31051 31054 28
24844 31051 31055 28
24845 31056 31057 28
24846 31056 31058 28
24847 31056 31059 28
24848 31056 31060 28
24849 31061 31062 28
24850 31061 31063 28
24851 31061 31064 28
24852 31061 31065 28
24853 31066 31067 28
24854 31066 31068 28
24855 31066 31069 28
24856 31066 31070 28
24857 31071 31072 28
24858 31071 31073 28
24859 31071 31074 28
24860 31071 31075 28
24861 31076 31077 28
24862 31076 31078 28
24863 31076 31079 28
24864 31076 31080 28
24865 31081 31082 28
24866 31081 31083 28
24867 31081 31084 28
24868 31081 31085 28
24869 31086 31087 28
24870 31086 31088 28
24871 31086 31089 28
24872 31086 31090 28
24873 31091 31092 28
24874 31091 31093 28
24875 31091 31094 28
24876 31091 31095 28
24877 31096 31097 28
24878 31096 31098 28
24879 31096 31099 28
24880 31096 31100 28
24881 31101 31102 28
24882 31101 31103 28
24883 31101 31104 28
24884 31101 31105 28
24885 31106 31107 28
24886 31106 31108 28
24887 31106 31109 28
24888 31106 31110 28
24889 31111 31112 28
24890 31111 31113 28
24891 31111 31114 28
24892 31111 31115 28
24893 31116 31117 28
24894 31116 31118 28
24895 31116 31119 28
24896 31116 31120 28
24897 31121 31122 28
24898 31121 31123 28
24899 31121 31124 28
24900 31121 31125 28
24901 31126 31127 28
24902 31126 31128 28
24903 31126 31129 28
24904 31126 31130 28
24905 31131 31132 28
24906 31131 31133 28
24907 31131 31134 28
24908 31131 31135 28
24909 31136 31137 28
24910 31136 31138 28
24911 31136 31139 28
24912 31136 31140 28
24913 31141 31142 28
24914 31141 31143 28
24915 31141 31144 28
24916 31141 31145 28
24917 31146 31147 28
24918 31146 31148 28
24919 31146 31149 28
24920 31146 31150 28
24921 31151 31152 28
24922 31151 31153 28
24923 31151 31154 28
24924 31151 31155 28
24925 31156 31157 28
24926 31156 31158 28
24927 31156 31159 28
24928 31156 31160 28
24929 31161 31162 28
24930 31161 31163 28
24931 31161 31164 28
24932 31161 31165 28
24933 31166 31167 28
24934 31166 31168 28
24935 31166 31169 28
24936 31166 31170 28
24937 31171 31172 28
24938 31171 31173 28
24939 31171 31174 28
24940 31171 31175 28
24941 31176 31177 28
24942 31176 31178 28
24943 31176 31179 28
24944 31176 31180 28
24945 31181 31182 28
24946 31181 31183 28
24947 31181 31184 28
24948 31181 31185 28
24949 31186 31187 28
24950 31186 31188 28
24951 31186 31189 28
24952 31186 31190 28
24953 31191 31192 28
24954 31191 31193 28
24955 31191 31194 28
24956 31191 31195 28
24957 31196 31197 28
24958 31196 31198 28
24959 31196 31199 28
24960 31196 31200 28
24961 31201 31202 28
24962 31201 31203 28
24963 31201 31204 28
24964 31201 31205 28
24965 31206 31207 28
24966 31206 31208 28
24967 31206 31209 28
24968 31206 31210 28
24969 31211 31212 28
24970 31211 31213 28
24971 31211 31214 28
24972 31211 31215 28
24973 31216 31217 28
24974 31216 31218 28
24975 31216 31219 28
24976 31216 31220 28
24977 31221 31222 28
24978 31221 31223 28
24979 31221 31224 28
24980 31221 31225 28
24981 31226 31227 28
24982 31226 31228 28
24983 31226 31229 28
24984 31226 31230 28
24985 31231 31232 28
24986 31231 31233 28
24987 31231 31234 28
24988 31231 31235 28
24989 31236 31237 28
24990 31236 31238 28
24991 31236 31239 28
24992 31236 31240 28
24993 31241 31242 28
24994 31241 31243 28
24995 31241 31244 28
24996 31241 31245 28
24997 31246 31247 28
24998 31246 31248 28
24999 31246 31249 28
25000 31246 31250 28
25001 31251 31252 28
25002 31251 31253 28
25003 31251 31254 28
25004 31251 31255 28
25005 31256 31257 28
25006 31256 31258 28
25007 31256 31259 28
25008 31256 31260 28
25009 31261 31262 28
25010 31261 31263 28
25011 31261 31264 28
25012 31261 31265 28
25013 31266 31267 28
25014 31266 31268 28
25015 31266 31269 28
25016 31266 31270 28
25017 31271 31272 28
25018 31271 31273 28
25019 31271 31274 28
25020 31271 31275 28
25021 31276 31277 28
25022 31276 31278 28
25023 31276 31279 28
25024 31276 31280 28
25025 31281 31282 28
25026 31281 31283 28
25027 31281 31284 28
25028 31281 31285 28
25029 31286 31287 28
25030 31286 31288 28
25031 31286 31289 28
25032 31286 31290 28
25033 31291 31292 28
25034 31291 31293 28
25035 31291 31294 28
25036 31291 31295 28
25037 31296 31297 28
25038 31296 31298 28
25039 31296 31299 28
25040 31296 31300 28
25041 31301 31302 28
25042 31301 31303 28
25043 31301 31304 28
25044 31301 31305 28
25045 31306 31307 28
25046 31306 31308 28
25047 31306 31309 28
25048 31306 31310 28
25049 31311 31312 28
25050 31311 31313 28
25051 31311 31314 28
25052 31311 31315 28
25053 31316 31317 28
25054 31316 31318 28
25055 31316 31319 28
25056 31316 31320 28
25057 31321 31322 28
25058 31321 31323 28
25059 31321 31324 28
25060 31321 31325 28
25061 31326 31327 28
25062 31326 31328 28
25063 31326 31329 28
25064 31326 31330 28
25065 31331 31332 28
25066 31331 31333 28
25067 31331 31334 28
25068 31331 31335 28
25069 31336 31337 28
25070 31336 31338 28
25071 31336 31339 28
25072 31336 31340 28
25073 31341 31342 28
25074 31341 31343 28
25075 31341 31344 28
25076 31341 31345 28
25077 31346 31347 28
25078 31346 31348 28
25079 31346 31349 28
25080 31346 31350 28
25081 31351 31352 28
25082 31351 31353 28
25083 31351 31354 28
25084 31351 31355 28
25085 31356 31357 28
25086 31356 31358 28
25087 31356 31359 28
25088 31356 31360 28
25089 31361 31362 28
25090 31361 31363 28
25091 31361 31364 28
25092 31361 31365 28
25093 31366 31367 28
25094 31366 31368 28
25095 31366 31369 28
25096 31366 31370 28
25097 31371 31372 28
25098 31371 31373 28
25099 31371 31374 28
25100 31371 31375 28
25101 31376 31377 28
25102 31376 31378 28
25103 31376 31379 28
25104 31376 31380 28
25105 31381 31382 28
25106 31381 31383 28
25107 31381 31384 28
25108 31381 31385 28
25109 31386 31387 28
25110 31386 31388 28
25111 31386 31389 28
25112 31386 31390 28
25113 31391 31392 28
25114 31391 31393 28
25115 31391 31394 28
25116 31391 31395 28
25117 31396 31397 28
25118 31396 31398 28
25119 31396 31399 28
25120 31396 31400 28
25121 31401 31402 28
25122 31401 31403 28
25123 31401 31404 28
25124 31401 31405 28
25125 31406 31407 28
25126 31406 31408 28
25127 31406 31409 28
25128 31406 31410 28
25129 31411 31412 28
25130 31411 31413 28
25131 31411 31414 28
25132 31411 31415 28
25133 31416 31417 28
25134 31416 31418 28
25135 31416 31419 28
25136 31416 31420 28
25137 31421 31422 28
25138 31421 31423 28
25139 31421 31424 28
25140 31421 31425 28
25141 31426 31427 28
25142 31426 31428 28
25143 31426 31429 28
25144 31426 31430 28
25145 31431 31432 28
25146 31431 31433 28
25147 31431 31434 28
25148 31431 31435 28
25149 31436 31437 28
25150 31436 31438 28
25151 31436 31439 28
25152 31436 31440 28
25153 31441 31442 28
25154 31441 31443 28
25155 31441 31444 28
25156 31441 31445 28
25157 31446 31447 28
25158 31446 31448 28
25159 31446 31449 28
25160 31446 31450 28
25161 31451 31452 28
25162 31451 31453 28
25163 31451 31454 28
25164 31451 31455 28
25165 31456 31457 28
25166 31456 31458 28
25167 31456 31459 28
25168 31456 31460 28
25169 31461 31462 28
25170 31461 31463 28
25171 31461 31464 28
25172 31461 31465 28
25173 31466 31467 28
25174 31466 31468 28
25175 31466 31469 28
25176 31466 31470 28
25177 31471 31472 28
25178 31471 31473 28
25179 31471 31474 28
25180 31471 31475 28
25181 31476 31477 28
25182 31476 31478 28
25183 31476 31479 28
25184 31476 31480 28
25185 31481 31482 28
25186 31481 31483 28
25187 31481 31484 28
25188 31481 31485 28
25189 31486 31487 28
25190 31486 31488 28
25191 31486 31489 28
25192 31486 31490 28
25193 31491 31492 28
25194 31491 31493 28
25195 31491 31494 28
25196 31491 31495 28
25197 31496 31497 28
25198 31496 31498 28
25199 31496 31499 28
25200 31496 31500 28
25201 31501 31502 28
25202 31501 31503 28
25203 31501 31504 28
25204 31501 31505 28
25205 31506 31507 28
25206 31506 31508 28
25207 31506 31509 28
25208 31506 31510 28
25209 31511 31512 28
25210 31511 31513 28
25211 31511 31514 28
25212 31511 31515 28
25213 31516 31517 28
25214 31516 31518 28
25215 31516 31519 28
25216 31516 31520 28
25217 31521 31522 28
25218 31521 31523 28
25219 31521 31524 28
25220 31521 31525 28
25221 31526 31527 28
25222 31526 31528 28
25223 31526 31529 28
25224 31526 31530 28
25225 31531 31532 28
25226 31531 31533 28
25227 31531 31534 28
25228 31531 31535 28
25229 31536 31537 28
25230 31536 31538 28
25231 31536 31539 28
25232 31536 31540 28
25233 31541 31542 28
25234 31541 31543 28
25235 31541 31544 28
25236 31541 31545 28
25237 31546 31547 28
25238 31546 31548 28
25239 31546 31549 28
25240 31546 31550 28
25241 31551 31552 28
25242 31551 31553 28
25243 31551 31554 28
25244 31551 31555 28
25245 31556 31557 28
25246 31556 31558 28
25247 31556 31559 28
25248 31556 31560 28
25249 31561 31562 28
25250 31561 31563 28
25251 31561 31564 28
25252 31561 31565 28
25253 31566 31567 28
25254 31566 31568 28
25255 31566 31569 28
25256 31566 31570 28
25257 31571 31572 28
25258 31571 31573 28
25259 31571 31574 28
25260 31571 31575 28
25261 31576 31577 28
25262 31576 31578 28
25263 31576 31579 28
25264 31576 31580 28
25265 31581 31582 28
25266 31581 31583 28
25267 31581 31584 28
25268 31581 31585 28
25269 31586 31587 28
25270 31586 31588 28
25271 31586 31589 28
25272 31586 31590 28
25273 31591 31592 28
25274 31591 31593 28
25275 31591 31594 28
25276 31591 31595 28
25277 31596 31597 28
25278 31596 31598 28
25279 31596 31599 28
25280 31596 31600 28
25281 31601 31602 28
25282 31601 31603 28
25283 31601 31604 28
25284 31601 31605 28
25285 31606 31607 28
25286 31606 31608 28
25287 31606 31609 28
25288 31606 31610 28
25289 31611 31612 28
25290 31611 31613 28
25291 31611 31614 28
25292 31611 31615 28
25293 31616 31617 28
25294 31616 31618 28
25295 31616 31619 28
25296 31616 31620 28
25297 31621 31622 28
25298 31621 31623 28
25299 31621 31624 28
25300 31621 31625 28
25301 31626 31627 28
25302 31626 31628 28
25303 31626 31629 28
25304 31626 31630 28
25305 31631 31632 28
25306 31631 31633 28
25307 31631 31634 28
25308 31631 31635 28
25309 31636 31637 28
25310 31636 31638 28
25311 31636 31639 28
25312 31636 31640 28
25313 31641 31642 28
25314 31641 31643 28
25315 31641 31644 28
25316 31641 31645 28
25317 31646 31647 28
25318 31646 31648 28
25319 31646 31649 28
25320 31646 31650 28
25321 31651 31652 28
25322 31651 31653 28
25323 31651 31654 28
25324 31651 31655 28
25325 31656 31657 28
25326 31656 31658 28
25327 31656 31659 28
25328 31656 31660 28
25329 31661 31662 28
25330 31661 31663 28
25331 31661 31664 28
25332 31661 31665 28
25333 31666 31667 28
25334 31666 31668 28
25335 31666 31669 28
25336 31666 31670 28
25337 31671 31672 28
25338 31671 31673 28
25339 31671 31674 28
25340 31671 31675 28
25341 31676 31677 28
25342 31676 31678 28
25343 31676 31679 28
25344 31676 31680 28
25345 31681 31682 28
25346 31681 31683 28
25347 31681 31684 28
25348 31681 31685 28
25349 31686 31687 28
25350 31686 31688 28
25351 31686 31689 28
25352 31686 31690 28
25353 31691 31692 28
25354 31691 31693 28
25355 31691 31694 28
25356 31691 31695 28
25357 31696 31697 28
25358 31696 31698 28
25359 31696 31699 28
25360 31696 31700 28
25361 31701 31702 28
25362 31701 31703 28
25363 31701 31704 28
25364 31701 31705 28
25365 31706 31707 28
25366 31706 31708 28
25367 31706 31709 28
25368 31706 31710 28
25369 31711 31712 28
25370 31711 31713 28
25371 31711 31714 28
25372 31711 31715 28
25373 31716 31717 28
25374 31716 31718 28
25375 31716 31719 28
25376 31716 31720 28
25377 31721 31722 28
25378 31721 31723 28
25379 31721 31724 28
25380 31721 31725 28
25381 31726 31727 28
25382 31726 31728 28
25383 31726 31729 28
25384 31726 31730 28
25385 31731 31732 28
25386 31731 31733 28
25387 31731 31734 28
25388 31731 31735 28
25389 31736 31737 28
25390 31736 31738 28
25391 31736 31739 28
25392 31736 31740 28
25393 31741 31742 28
25394 31741 31743 28
25395 31741 31744 28
25396 31741 31745 28
25397 31746 31747 28
25398 31746 31748 28
25399 31746 31749 28
25400 31746 31750 28
25401 31751 31752 28
25402 31751 31753 28
25403 31751 31754 28
25404 31751 31755 28
25405 31756 31757 28
25406 31756 31758 28
25407 31756 31759 28
25408 31756 31760 28
25409 31761 31762 28
25410 31761 31763 28
25411 31761 31764 28
25412 31761 31765 28
25413 31766 31767 28
25414 31766 31768 28
25415 31766 31769 28
25416 31766 31770 28
25417 31771 31772 28
25418 31771 31773 28
25419 31771 31774 28
25420 31771 31775 28
25421 31776 31777 28
25422 31776 31778 28
25423 31776 31779 28
25424 31776 31780 28
25425 31781 31782 28
25426 31781 31783 28
25427 31781 31784 28
25428 31781 31785 28
25429 31786 31787 28
25430 31786 31788 28
25431 31786 31789 28
25432 31786 31790 28
25433 31791 31792 28
25434 31791 31793 28
25435 31791 31794 28
25436 31791 31795 28
25437 31796 31797 28
25438 31796 31798 28
25439 31796 31799 28
25440 31796 31800 28
25441 31801 31802 28
25442 31801 31803 28
25443 31801 31804 28
25444 31801 31805 28
25445 31806 31807 28
25446 31806 31808 28
25447 31806 31809 28
25448 31806 31810 28
25449 31811 31812 28
25450 31811 31813 28
25451 31811 31814 28
25452 31811 31815 28
25453 31816 31817 28
25454 31816 31818 28
25455 31816 31819 28
25456 31816 31820 28
25457 31821 31822 28
25458 31821 31823 28
25459 31821 31824 28
25460 31821 31825 28
25461 31826 31827 28
25462 31826 31828 28
25463 31826 31829 28
25464 31826 31830 28
25465 31831 31832 28
25466 31831 31833 28
25467 31831 31834 28
25468 31831 31835 28
25469 31836 31837 28
25470 31836 31838 28
25471 31836 31839 28
25472 31836 31840 28
25473 31841 31842 28
25474 31841 31843 28
25475 31841 31844 28
25476 31841 31845 28
25477 31846 31847 28
25478 31846 31848 28
25479 31846 31849 28
25480 31846 31850 28
25481 31851 31852 28
25482 31851 31853 28
25483 31851 31854 28
25484 31851 31855 28
25485 31856 31857 28
25486 31856 31858 28
25487 31856 31859 28
25488 31856 31860 28
25489 31861 31862 28
25490 31861 31863 28
25491 31861 31864 28
25492 31861 31865 28
25493 31866 31867 28
25494 31866 31868 28
25495 31866 31869 28
25496 31866 31870 28
25497 31871 31872 28
25498 31871 31873 28
25499 31871 31874 28
25500 31871 31875 28
25501 31876 31877 28
25502 31876 31878 28
25503 31876 31879 28
25504 31876 31880 28
25505 31881 31882 28
25506 31881 31883 28
25507 31881 31884 28
25508 31881 31885 28
25509 31886 31887 28
25510 31886 31888 28
25511 31886 31889 28
25512 31886 31890 28
25513 31891 31892 28
25514 31891 31893 28
25515 31891 31894 28
25516 31891 31895 28
25517 31896 31897 28
25518 31896 31898 28
25519 31896 31899 28
25520 31896 31900 28
25521 31901 31902 28
25522 31901 31903 28
25523 31901 31904 28
25524 31901 31905 28
25525 31906 31907 28
25526 31906 31908 28
25527 31906 31909 28
25528 31906 31910 28
25529 31911 31912 28
25530 31911 31913 28
25531 31911 31914 28
25532 31911 31915 28
25533 31916 31917 28
25534 31916 31918 28
25535 31916 31919 28
25536 31916 31920 28
25537 31921 31922 28
25538 31921 31923 28
25539 31921 31924 28
25540 31921 31925 28
25541 31926 31927 28
25542 31926 31928 28
25543 31926 31929 28
25544 31926 31930 28
25545 31931 31932 28
25546 31931 31933 28
25547 31931 31934 28
25548 31931 31935 28
25549 31936 31937 28
25550 31936 31938 28
25551 31936 31939 28
25552 31936 31940 28
25553 31941 31942 28
25554 31941 31943 28
25555 31941 31944 28
25556 31941 31945 28
25557 31946 31947 28
25558 31946 31948 28
25559 31946 31949 28
25560 31946 31950 28
25561 31951 31952 28
25562 31951 31953 28
25563 31951 31954 28
25564 31951 31955 28
25565 31956 31957 28
25566 31956 31958 28
25567 31956 31959 28
25568 31956 31960 28
25569 31961 31962 28
25570 31961 31963 28
25571 31961 31964 28
25572 31961 31965 28
25573 31966 31967 28
25574 31966 31968 28
25575 31966 31969 28
25576 31966 31970 28
25577 31971 31972 28
25578 31971 31973 28
25579 31971 31974 28
25580 31971 31975 28
25581 31976 31977 28
25582 31976 31978 28
25583 31976 31979 28
25584 31976 31980 28
25585 31981 31982 28
25586 31981 31983 28
25587 31981 31984 28
25588 31981 31985 28
25589 31986 31987 28
25590 31986 31988 28
25591 31986 31989 28
25592 31986 31990 28
25593 31991 31992 28
25594 31991 31993 28
25595 31991 31994 28
25596 31991 31995 28
25597 31996 31997 28
25598 31996 31998 28
25599 31996 31999 28
25600 31996 32000 28
25601 32001 32002 28
25602 32001 32003 28
25603 32001 32004 28
25604 32001 32005 28
25605 32006 32007 28
25606 32006 32008 28
25607 32006 32009 28
25608 32006 32010 28
25609 32011 32012 28
25610 32011 32013 28
25611 32011 32014 28
25612 32011 32015 28
25613 32016 32017 28
25614 32016 32018 28
25615 32016 32019 28
25616 32016 32020 28
25617 32021 32022 28
25618 32021 32023 28
25619 32021 32024 28
25620 32021 32025 28
25621 32026 32027 28
25622 32026 32028 28
25623 32026 32029 28
25624 32026 32030 28
25625 32031 32032 28
25626 32031 32033 28
25627 32031 32034 28
25628 32031 32035 28
25629 32036 32037 28
25630 32036 32038 28
25631 32036 32039 28
25632 32036 32040 28
25633 32041 32042 28
25634 32041 32043 28
25635 32041 32044 28
25636 32041 32045 28
25637 32046 32047 28
25638 32046 32048 28
25639 32046 32049 28
25640 32046 32050 28
25641 32051 32052 28
25642 32051 32053 28
25643 32051 32054 28
25644 32051 32055 28
25645 32056 32057 28
25646 32056 32058 28
25647 32056 32059 28
25648 32056 32060 28
25649 32061 32062 28
25650 32061 32063 28
25651 32061 32064 28
25652 32061 32065 28
25653 32066 32067 28
25654 32066 32068 28
25655 32066 32069 28
25656 32066 32070 28
25657 32071 32072 28
25658 32071 32073 28
25659 32071 32074 28
25660 32071 32075 28
25661 32076 32077 28
25662 32076 32078 28
25663 32076 32079 28
25664 32076 32080 28
25665 32081 32082 28
25666 32081 32083 28
25667 32081 32084 28
25668 32081 32085 28
25669 32086 32087 28
25670 32086 32088 28
25671 32086 32089 28
25672 32086 32090 28
25673 32091 32092 28
25674 32091 32093 28
25675 32091 32094 28
25676 32091 32095 28
25677 32096 32097 28
25678 32096 32098 28
25679 32096 32099 28
25680 32096 32100 28
25681 32101 32102 28
25682 32101 32103 28
25683 32101 32104 28
25684 32101 32105 28
25685 32106 32107 28
25686 32106 32108 28
25687 32106 32109 28
25688 32106 32110 28
25689 32111 32112 28
25690 32111 32113 28
25691 32111 32114 28
25692 32111 32115 28
25693 32116 32117 28
25694 32116 32118 28
25695 32116 32119 28
25696 32116 32120 28
25697 32121 32122 28
25698 32121 32123 28
25699 32121 32124 28
25700 32121 32125 28
25701 32126 32127 28
25702 32126 32128 28
25703 32126 32129 28
25704 32126 32130 28
25705 32131 32132 28
25706 32131 32133 28
25707 32131 32134 28
25708 32131 32135 28
25709 32136 32137 28
25710 32136 32138 28
25711 32136 32139 28
25712 32136 32140 28
25713 32141 32142 28
25714 32141 32143 28
25715 32141 32144 28
25716 32141 32145 28
25717 32146 32147 28
25718 32146 32148 28
25719 32146 32149 28
25720 32146 32150 28
25721 32151 32152 28
25722 32151 32153 28
25723 32151 32154 28
25724 32151 32155 28
25725 32156 32157 28
25726 32156 32158 28
25727 32156 32159 28
25728 32156 32160 28
25729 32161 32162 28
25730 32161 32163 28
25731 32161 32164 28
25732 32161 32165 28
25733 32166 32167 28
25734 32166 32168 28
25735 32166 32169 28
25736 32166 32170 28
25737 32171 32172 28
25738 32171 32173 28
25739 32171 32174 28
25740 32171 32175 28
25741 32176 32177 28
25742 32176 32178 28
25743 32176 32179 28
25744 32176 32180 28
25745 32181 32182 28
25746 32181 32183 28
25747 32181 32184 28
25748 32181 32185 28
25749 32186 32187 28
25750 32186 32188 28
25751 32186 32189 28
25752 32186 32190 28
25753 32191 32192 28
25754 32191 32193 28
25755 32191 32194 28
25756 32191 32195 28
25757 32196 32197 28
25758 32196 32198 28
25759 32196 32199 28
25760 32196 32200 28
25761 32201 32202 28
25762 32201 32203 28
25763 32201 32204 28
25764 32201 32205 28
25765 32206 32207 28
25766 32206 32208 28
25767 32206 32209 28
25768 32206 32210 28
25769 32211 32212 28
25770 32211 32213 28
25771 32211 32214 28
25772 32211 32215 28
25773 32216 32217 28
25774 32216 32218 28
25775 32216 32219 28
25776 32216 32220 28
25777 32221 32222 28
25778 32221 32223 28
25779 32221 32224 28
25780 32221 32225 28
25781 32226 32227 28
25782 32226 32228 28
25783 32226 32229 28
25784 32226 32230 28
25785 32231 32232 28
25786 32231 32233 28
25787 32231 32234 28
25788 32231 32235 28
25789 32236 32237 28
25790 32236 32238 28
25791 32236 32239 28
25792 32236 32240 28
25793 32241 32242 28
25794 32241 32243 28
25795 32241 32244 28
25796 32241 32245 28
25797 32246 32247 28
25798 32246 32248 28
25799 32246 32249 28
25800 32246 32250 28
25801 32251 32252 28
25802 32251 32253 28
25803 32251 32254 28
25804 32251 32255 28
25805 32256 32257 28
25806 32256 32258 28
25807 32256 32259 28
25808 32256 32260 28
25809 32261 32262 28
25810 32261 32263 28
25811 32261 32264 28
25812 32261 32265 28
25813 32266 32267 28
25814 32266 32268 28
25815 32266 32269 28
25816 32266 32270 28
25817 32271 32272 28
25818 32271 32273 28
25819 32271 32274 28
25820 32271 32275 28
25821 32276 32277 28
25822 32276 32278 28
25823 32276 32279 28
25824 32276 32280 28
25825 32281 32282 28
25826 32281 32283 28
25827 32281 32284 28
25828 32281 32285 28
25829 32286 32287 28
25830 32286 32288 28
25831 32286 32289 28
25832 32286 32290 28
25833 32291 32292 28
25834 32291 32293 28
25835 32291 32294 28
25836 32291 32295 28
25837 32296 32297 28
25838 32296 32298 28
25839 32296 32299 28
25840 32296 32300 28
25841 32301 32302 28
25842 32301 32303 28
25843 32301 32304 28
25844 32301 32305 28
25845 32306 32307 28
25846 32306 32308 28
25847 32306 32309 28
25848 32306 32310 28
25849 32311 32312 28
25850 32311 32313 28
25851 32311 32314 28
25852 32311 32315 28
25853 32316 32317 28
25854 32316 32318 28
25855 32316 32319 28
25856 32316 32320 28
25857 32321 32322 28
25858 32321 32323 28
25859 32321 32324 28
25860 32321 32325 28
25861 32326 32327 28
25862 32326 32328 28
25863 32326 32329 28
25864 32326 32330 28
25865 32331 32332 28
25866 32331 32333 28
25867 32331 32334 28
25868 32331 32335 28
25869 32336 32337 28
25870 32336 32338 28
25871 32336 32339 28
25872 32336 32340 28
25873 32341 32342 28
25874 32341 32343 28
25875 32341 32344 28
25876 32341 32345 28
25877 32346 32347 28
25878 32346 32348 28
25879 32346 32349 28
25880 32346 32350 28
25881 32351 32352 28
25882 32351 32353 28
25883 32351 32354 28
25884 32351 32355 28
25885 32356 32357 28
25886 32356 32358 28
25887 32356 32359 28
25888 32356 32360 28
25889 32361 32362 28
25890 32361 32363 28
25891 32361 32364 28
25892 32361 32365 28
25893 32366 32367 28
25894 32366 32368 28
25895 32366 32369 28
25896 32366 32370 28
25897 32371 32372 28
25898 32371 32373 28
25899 32371 32374 28
25900 32371 32375 28
25901 32376 32377 28
25902 32376 32378 28
25903 32376 32379 28
25904 32376 32380 28
25905 32381 32382 28
25906 32381 32383 28
25907 32381 32384 28
25908 32381 32385 28
25909 32386 32387 28
25910 32386 32388 28
25911 32386 32389 28
25912 32386 32390 28
25913 32391 32392 28
25914 32391 32393 28
25915 32391 32394 28
25916 32391 32395 28
25917 32396 32397 28
25918 32396 32398 28
25919 32396 32399 28
25920 32396 32400 28
25921 32401 32402 28
25922 32401 32403 28
25923 32401 32404 28
25924 32401 32405 28
25925 32406 32407 28
25926 32406 32408 28
25927 32406 32409 28
25928 32406 32410 28
25929 32411 32412 28
25930 32411 32413 28
25931 32411 32414 28
25932 32411 32415 28
25933 32416 32417 28
25934 32416 32418 28
25935 32416 32419 28
25936 32416 32420 28
25937 32421 32422 28
25938 32421 32423 28
25939 32421 32424 28
25940 32421 32425 28
25941 32426 32427 28
25942 32426 32428 28
25943 32426 32429 28
25944 32426 32430 28
25945 32431 32432 28
25946 32431 32433 28
25947 32431 32434 28
25948 32431 32435 28
25949 32436 32437 28
25950 32436 32438 28
25951 32436 32439 28
25952 32436 32440 28
25953 32441 32442 28
25954 32441 32443 28
25955 32441 32444 28
25956 32441 32445 28
25957 32446 32447 28
25958 32446 32448 28
25959 32446 32449 28
25960 32446 32450 28
25961 32451 32452 28
25962 32451 32453 28
25963 32451 32454 28
25964 32451 32455 28
25965 32456 32457 28
25966 32456 32458 28
25967 32456 32459 28
25968 32456 32460 28
25969 32461 32462 28
25970 32461 32463 28
25971 32461 32464 28
25972 32461 32465 28
25973 32466 32467 28
25974 32466 32468 28
25975 32466 32469 28
25976 32466 32470 28
25977 32471 32472 28
25978 32471 32473 28
25979 32471 32474 28
25980 32471 32475 28
25981 32476 32477 28
25982 32476 32478 28
25983 32476 32479 28
25984 32476 32480 28
25985 32481 32482 28
25986 32481 32483 28
25987 32481 32484 28
25988 32481 32485 28
25989 32486 32487 28
25990 32486 32488 28
25991 32486 32489 28
25992 32486 32490 28
25993 32491 32492 28
25994 32491 32493 28
25995 32491 32494 28
25996 32491 32495 28
25997 32496 32497 28
25998 32496 32498 28
25999 32496 32499 28
26000 32496 32500 28
26001 32501 32502 28
26002 32501 32503 28
26003 32501 32504 28
26004 32501 32505 28
26005 32506 32507 28
26006 32506 32508 28
26007 32506 32509 28
26008 32506 32510 28
26009 32511 32512 28
26010 32511 32513 28
26011 32511 32514 28
26012 32511 32515 28
26013 32516 32517 28
26014 32516 32518 28
26015 32516 32519 28
26016 32516 32520 28
26017 32521 32522 28
26018 32521 32523 28
26019 32521 32524 28
26020 32521 32525 28
26021 32526 32527 28
26022 32526 32528 28
26023 32526 32529 28
26024 32526 32530 28
26025 32531 32532 28
26026 32531 32533 28
26027 32531 32534 28
26028 32531 32535 28
26029 32536 32537 28
26030 32536 32538 28
26031 32536 32539 28
26032 32536 32540 28
26033 32541 32542 28
26034 32541 32543 28
26035 32541 32544 28
26036 32541 32545 28
26037 32546 32547 28
26038 32546 32548 28
26039 32546 32549 28
26040 32546 32550 28
26041 32551 32552 28
26042 32551 32553 28
26043 32551 32554 28
26044 32551 32555 28
26045 32556 32557 28
26046 32556 32558 28
26047 32556 32559 28
26048 32556 32560 28
26049 32561 32562 28
26050 32561 32563 28
26051 32561 32564 28
26052 32561 32565 28
26053 32566 32567 28
26054 32566 32568 28
26055 32566 32569 28
26056 32566 32570 28
26057 32571 32572 28
26058 32571 32573 28
26059 32571 32574 28
26060 32571 32575 28
26061 32576 32577 28
26062 32576 32578 28
26063 32576 32579 28
26064 32576 32580 28
26065 32581 32582 28
26066 32581 32583 28
26067 32581 32584 28
26068 32581 32585 28
26069 32586 32587 28
26070 32586 32588 28
26071 32586 32589 28
26072 32586 32590 28
26073 32591 32592 28
26074 32591 32593 28
26075 32591 32594 28
26076 32591 32595 28
26077 32596 32597 28
26078 32596 32598 28
26079 32596 32599 28
26080 32596 32600 28
26081 32601 32602 28
26082 32601 32603 28
26083 32601 32604 28
26084 32601 32605 28
26085 32606 32607 28
26086 32606 32608 28
26087 32606 32609 28
26088 32606 32610 28
26089 32611 32612 28
26090 32611 32613 28
26091 32611 32614 28
26092 32611 32615 28
26093 32616 32617 28
26094 32616 32618 28
26095 32616 32619 28
26096 32616 32620 28
26097 32621 32622 28
26098 32621 32623 28
26099 32621 32624 28
26100 32621 32625 28
26101 32626 32627 28
26102 32626 32628 28
26103 32626 32629 28
26104 32626 32630 28
26105 32631 32632 28
26106 32631 32633 28
26107 32631 32634 28
26108 32631 32635 28
26109 32636 32637 28
26110 32636 32638 28
26111 32636 32639 28
26112 32636 32640 28
26113 32641 32642 28
26114 32641 32643 28
26115 32641 32644 28
26116 32641 32645 28
26117 32646 32647 28
26118 32646 32648 28
26119 32646 32649 28
26120 32646 32650 28
26121 32651 32652 28
26122 32651 32653 28
26123 32651 32654 28
26124 32651 32655 28
26125 32656 32657 28
26126 32656 32658 28
26127 32656 32659 28
26128 32656 32660 28
26129 32661 32662 28
26130 32661 32663 28
26131 32661 32664 28
26132 32661 32665 28
26133 32666 32667 28
26134 32666 32668 28
26135 32666 32669 28
26136 32666 32670 28
26137 32671 32672 28
26138 32671 32673 28
26139 32671 32674 28
26140 32671 32675 28
26141 32676 32677 28
26142 32676 32678 28
26143 32676 32679 28
26144 32676 32680 28
26145 32681 32682 28
26146 32681 32683 28
26147 32681 32684 28
26148 32681 32685 28
26149 32686 32687 28
26150 32686 32688 28
26151 32686 32689 28
26152 32686 32690 28
26153 32691 32692 28
26154 32691 32693 28
26155 32691 32694 28
26156 32691 32695 28
26157 32696 32697 28
26158 32696 32698 28
26159 32696 32699 28
26160 32696 32700 28
26161 32701 32702 28
26162 32701 32703 28
26163 32701 32704 28
26164 32701 32705 28
26165 32706 32707 28
26166 32706 32708 28
26167 32706 32709 28
26168 32706 32710 28
26169 32711 32712 28
26170 32711 32713 28
26171 32711 32714 28
26172 32711 32715 28
26173 32716 32717 28
26174 32716 32718 28
26175 32716 32719 28
26176 32716 32720 28
26177 32721 32722 28
26178 32721 32723 28
26179 32721 32724 28
26180 32721 32725 28
26181 32726 32727 28
26182 32726 32728 28
26183 32726 32729 28
26184 32726 32730 28
26185 32731 32732 28
26186 32731 32733 28
26187 32731 32734 28
26188 32731 32735 28
26189 32736 32737 28
26190 32736 32738 28
26191 32736 32739 28
26192 32736 32740 28
26193 32741 32742 28
26194 32741 32743 28
26195 32741 32744 28
26196 32741 32745 28
26197 32746 32747 28
26198 32746 32748 28
26199 32746 32749 28
26200 32746 32750 28
26201 32751 32752 28
26202 32751 32753 28
26203 32751 32754 28
26204 32751 32755 28
26205 32756 32757 28
26206 32756 32758 28
26207 32756 32759 28
26208 32756 32760 28
26209 32761 32762 28
26210 32761 32763 28
26211 32761 32764 28
26212 32761 32765 28
26213 32766 32767 28
26214 32766 32768 28
26215 32766 32769 28
26216 32766 32770 28
26217 32771 32772 28
26218 32771 32773 28
26219 32771 32774 28
26220 32771 32775 28
26221 32776 32777 28
26222 32776 32778 28
26223 32776 32779 28
26224 32776 32780 28
26225 32781 32782 28
26226 32781 32783 28
26227 32781 32784 28
26228 32781 32785 28
26229 32786 32787 28
26230 32786 32788 28
26231 32786 32789 28
26232 32786 32790 28
26233 32791 32792 28
26234 32791 32793 28
26235 32791 32794 28
26236 32791 32795 28
26237 32796 32797 28
26238 32796 32798 28
26239 32796 32799 28
26240 32796 32800 28
26241 32801 32802 28
26242 32801 32803 28
26243 32801 32804 28
26244 32801 32805 28
26245 32806 32807 28
26246 32806 32808 28
26247 32806 32809 28
26248 32806 32810 28
26249 32811 32812 28
26250 32811 32813 28
26251 32811 32814 28
26252 32811 32815 28
26253 32816 32817 28
26254 32816 32818 28
26255 32816 32819 28
26256 32816 32820 28
26257 32821 32822 28
26258 32821 32823 28
26259 32821 32824 28
26260 32821 32825 28
26261 32826 32827 28
26262 32826 32828 28
26263 32826 32829 28
26264 32826 32830 28
26265 32831 32832 28
26266 32831 32833 28
26267 32831 32834 28
26268 32831 32835 28
26269 32836 32837 28
26270 32836 32838 28
26271 32836 32839 28
26272 32836 32840 28
26273 32841 32842 28
26274 32841 32843 28
26275 32841 32844 28
26276 32841 32845 28
26277 32846 32847 28
26278 32846 32848 28
26279 32846 32849 28
26280 32846 32850 28
26281 32851 32852 28
26282 32851 32853 28
26283 32851 32854 28
26284 32851 32855 28
26285 32856 32857 28
26286 32856 32858 28
26287 32856 32859 28
26288 32856 32860 28
26289 32861 32862 28
26290 32861 32863 28
26291 32861 32864 28
26292 32861 32865 28
26293 32866 32867 28
26294 32866 32868 28
26295 32866 32869 28
26296 32866 32870 28
26297 32871 32872 28
26298 32871 32873 28
26299 32871 32874 28
26300 32871 32875 28
26301 32876 32877 28
26302 32876 32878 28
26303 32876 32879 28
26304 32876 32880 28
26305 32881 32882 28
26306 32881 32883 28
26307 32881 32884 28
26308 32881 32885 28
26309 32886 32887 28
26310 32886 32888 28
26311 32886 32889 28
26312 32886 32890 28
26313 32891 32892 28
26314 32891 32893 28
26315 32891 32894 28
26316 32891 32895 28
26317 32896 32897 28
26318 32896 32898 28
26319 32896 32899 28
26320 32896 32900 28
26321 32901 32902 28
26322 32901 32903 28
26323 32901 32904 28
26324 32901 32905 28
26325 32906 32907 28
26326 32906 32908 28
26327 32906 32909 28
26328 32906 32910 28
26329 32911 32912 28
26330 32911 32913 28
26331 32911 32914 28
26332 32911 32915 28
26333 32916 32917 28
26334 32916 32918 28
26335 32916 32919 28
26336 32916 32920 28
26337 32921 32922 28
26338 32921 32923 28
26339 32921 32924 28
26340 32921 32925 28
26341 32926 32927 28
26342 32926 32928 28
26343 32926 32929 28
26344 32926 32930 28
26345 32931 32932 28
26346 32931 32933 28
26347 32931 32934 28
26348 32931 32935 28
26349 32936 32937 28
26350 32936 32938 28
26351 32936 32939 28
26352 32936 32940 28
26353 32941 32942 28
26354 32941 32943 28
26355 32941 32944 28
26356 32941 32945 28
26357 32946 32947 28
26358 32946 32948 28
26359 32946 32949 28
26360 32946 32950 28
26361 32951 32952 28
26362 32951 32953 28
26363 32951 32954 28
26364 32951 32955 28
26365 32956 32957 28
26366 32956 32958 28
26367 32956 32959 28
26368 32956 32960 28
26369 32961 32962 28
26370 32961 32963 28
26371 32961 32964 28
26372 32961 32965 28
26373 32966 32967 28
26374 32966 32968 28
26375 32966 32969 28
26376 32966 32970 28
26377 32971 32972 28
26378 32971 32973 28
26379 32971 32974 28
26380 32971 32975 28
26381 32976 32977 28
26382 32976 32978 28
26383 32976 32979 28
26384 32976 32980 28
26385 32981 32982 28
26386 32981 32983 28
26387 32981 32984 28
26388 32981 32985 28
26389 32986 32987 28
26390 32986 32988 28
26391 32986 32989 28
26392 32986 32990 28
26393 32991 32992 28
26394 32991 32993 28
26395 32991 32994 28
26396 32991 32995 28
26397 32996 32997 28
26398 32996 32998 28
26399 32996 32999 28
26400 32996 33000 28
26401 33001 33002 28
26402 33001 33003 28
26403 33001 33004 28
26404 33001 33005 28
26405 33006 33007 28
26406 33006 33008 28
26407 33006 33009 28
26408 33006 33010 28
26409 33011 33012 28
26410 33011 33013 28
26411 33011 33014 28
26412 33011 33015 28
26413 33016 33017 28
26414 33016 33018 28
26415 33016 33019 28
26416 33016 33020 28
26417 33021 33022 28
26418 33021 33023 28
26419 33021 33024 28
26420 33021 33025 28
26421 33026 33027 28
26422 33026 33028 28
26423 33026 33029 28
26424 33026 33030 28
26425 33031 33032 28
26426 33031 33033 28
26427 33031 33034 28
26428 33031 33035 28
26429 33036 33037 28
26430 33036 33038 28
26431 33036 33039 28
26432 33036 33040 28
26433 33041 33042 28
26434 33041 33043 28
26435 33041 33044 28
26436 33041 33045 28
26437 33046 33047 28
26438 33046 33048 28
26439 33046 33049 28
26440 33046 33050 28
26441 33051 33052 28
26442 33051 33053 28
26443 33051 33054 28
26444 33051 33055 28
26445 33056 33057 28
26446 33056 33058 28
26447 33056 33059 28
26448 33056 33060 28
26449 33061 33062 28
26450 33061 33063 28
26451 33061 33064 28
26452 33061 33065 28
26453 33066 33067 28
26454 33066 33068 28
26455 33066 33069 28
26456 33066 33070 28
26457 33071 33072 28
26458 33071 33073 28
26459 33071 33074 28
26460 33071 33075 28
26461 33076 33077 28
26462 33076 33078 28
26463 33076 33079 28
26464 33076 33080 28
26465 33081 33082 28
26466 33081 33083 28
26467 33081 33084 28
26468 33081 33085 28
26469 33086 33087 28
26470 33086 33088 28
26471 33086 33089 28
26472 33086 33090 28
26473 33091 33092 28
26474 33091 33093 28
26475 33091 33094 28
26476 33091 33095 28
26477 33096 33097 28
26478 33096 33098 28
26479 33096 33099 28
26480 33096 33100 28
26481 33101 33102 28
26482 33101 33103 28
26483 33101 33104 28
26484 33101 33105 28
26485 33106 33107 28
26486 33106 33108 28
26487 33106 33109 28
26488 33106 33110 28
26489 33111 33112 28
26490 33111 33113 28
26491 33111 33114 28
26492 33111 33115 28
26493 33116 33117 28
26494 33116 33118 28
26495 33116 33119 28
26496 33116 33120 28
26497 33121 33122 28
26498 33121 33123 28
26499 33121 33124 28
26500 33121 33125 28
26501 33126 33127 28
26502 33126 33128 28
26503 33126 33129 28
26504 33126 33130 28
26505 33131 33132 28
26506 33131 33133 28
26507 33131 33134 28
26508 33131 33135 28
26509 33136 33137 28
26510 33136 33138 28
26511 33136 33139 28
26512 33136 33140 28
26513 33141 33142 28
26514 33141 33143 28
26515 33141 33144 28
26516 33141 33145 28
26517 33146 33147 28
26518 33146 33148 28
26519 33146 33149 28
26520 33146 33150 28
26521 33151 33152 28
26522 33151 33153 28
26523 33151 33154 28
26524 33151 33155 28
26525 33156 33157 28
26526 33156 33158 28
26527 33156 33159 28
26528 33156 33160 28
26529 33161 33162 28
26530 33161 33163 28
26531 33161 33164 28
26532 33161 33165 28
26533 33166 33167 28
26534 33166 33168 28
26535 33166 33169 28
26536 33166 33170 28
26537 33171 33172 28
26538 33171 33173 28
26539 33171 33174 28
26540 33171 33175 28
26541 33176 33177 28
26542 33176 33178 28
26543 33176 33179 28
26544 33176 33180 28
26545 33181 33182 28
26546 33181 33183 28
26547 33181 33184 28
26548 33181 33185 28
26549 33186 33187 28
26550 33186 33188 28
26551 33186 33189 28
26552 33186 33190 28
26553 33191 33192 28
26554 33191 33193 28
26555 33191 33194 28
26556 33191 33195 28
26557 33196 33197 28
26558 33196 33198 28
26559 33196 33199 28
26560 33196 33200 28
26561 33201 33202 28
26562 33201 33203 28
26563 33201 33204 28
26564 33201 33205 28
26565 33206 33207 28
26566 33206 33208 28
26567 33206 33209 28
26568 33206 33210 28
26569 33211 33212 28
26570 33211 33213 28
26571 33211 33214 28
26572 33211 33215 28
26573 33216 33217 28
26574 33216 33218 28
26575 33216 33219 28
26576 33216 33220 28
26577 33221 33222 28
26578 33221 33223 28
26579 33221 33224 28
26580 33221 33225 28
26581 33226 33227 28
26582 33226 33228 28
26583 33226 33229 28
26584 33226 33230 28
26585 33231 33232 28
26586 33231 33233 28
26587 33231 33234 28
26588 33231 33235 28
26589 33236 33237 28
26590 33236 33238 28
26591 33236 33239 28
26592 33236 33240 28
26593 33241 33242 28
26594 33241 33243 28
26595 33241 33244 28
26596 33241 33245 28
26597 33246 33247 28
26598 33246 33248 28
26599 33246 33249 28
26600 33246 33250 28
26601 33251 33252 28
26602 33251 33253 28
26603 33251 33254 28
26604 33251 33255 28
26605 33256 33257 28
26606 33256 33258 28
26607 33256 33259 28
26608 33256 33260 28
26609 33261 33262 28
26610 33261 33263 28
26611 33261 33264 28
26612 33261 33265 28
26613 33266 33267 28
26614 33266 33268 28
26615 33266 33269 28
26616 33266 33270 28
26617 33271 33272 28
26618 33271 33273 28
26619 33271 33274 28
26620 33271 33275 28
26621 33276 33277 28
26622 33276 33278 28
26623 33276 33279 28
26624 33276 33280 28
26625 33281 33282 28
26626 33281 33283 28
26627 33281 33284 28
26628 33281 33285 28
26629 33286 33287 28
26630 33286 33288 28
26631 33286 33289 28
26632 33286 33290 28
26633 33291 33292 28
26634 33291 33293 28
26635 33291 33294 28
26636 33291 33295 28
26637 33296 33297 28
26638 33296 33298 28
26639 33296 33299 28
26640 33296 33300 28
26641 33301 33302 28
26642 33301 33303 28
26643 33301 33304 28
26644 33301 33305 28
26645 33306 33307 28
26646 33306 33308 28
26647 33306 33309 28
26648 33306 33310 28
26649 33311 33312 28
26650 33311 33313 28
26651 33311 33314 28
26652 33311 33315 28
26653 33316 33317 28
26654 33316 33318 28
26655 33316 33319 28
26656 33316 33320 28
26657 33321 33322 28
26658 33321 33323 28
26659 33321 33324 28
26660 33321 33325 28
26661 33326 33327 28
26662 33326 33328 28
26663 33326 33329 28
26664 33326 33330 28
26665 33331 33332 28
26666 33331 33333 28
26667 33331 33334 28
26668 33331 33335 28
26669 33336 33337 28
26670 33336 33338 28
26671 33336 33339 28
26672 33336 33340 28
26673 33341 33342 28
26674 33341 33343 28
26675 33341 33344 28
26676 33341 33345 28
26677 33346 33347 28
26678 33346 33348 28
26679 33346 33349 28
26680 33346 33350 28
26681 33351 33352 28
26682 33351 33353 28
26683 33351 33354 28
26684 33351 33355 28
26685 33356 33357 28
26686 33356 33358 28
26687 33356 33359 28
26688 33356 33360 28
26689 33361 33362 28
26690 33361 33363 28
26691 33361 33364 28
26692 33361 33365 28
26693 33366 33367 28
26694 33366 33368 28
26695 33366 33369 28
26696 33366 33370 28
26697 33371 33372 28
26698 33371 33373 28
26699 33371 33374 28
26700 33371 33375 28
26701 33376 33377 28
26702 33376 33378 28
26703 33376 33379 28
26704 33376 33380 28
26705 33381 33382 28
26706 33381 33383 28
26707 33381 33384 28
26708 33381 33385 28
26709 33386 33387 28
26710 33386 33388 28
26711 33386 33389 28
26712 33386 33390 28
26713 33391 33392 28
26714 33391 33393 28
26715 33391 33394 28
26716 33391 33395 28
26717 33396 33397 28
26718 33396 33398 28
26719 33396 33399 28
26720 33396 33400 28
26721 33401 33402 28
26722 33401 33403 28
26723 33401 33404 28
26724 33401 33405 28
26725 33406 33407 28
26726 33406 33408 28
26727 33406 33409 28
26728 33406 33410 28
26729 33411 33412 28
26730 33411 33413 28
26731 33411 33414 28
26732 33411 33415 28
26733 33416 33417 28
26734 33416 33418 28
26735 33416 33419 28
26736 33416 33420 28
26737 33421 33422 28
26738 33421 33423 28
26739 33421 33424 28
26740 33421 33425 28
26741 33426 33427 28
26742 33426 33428 28
26743 33426 33429 28
26744 33426 33430 28
26745 33431 33432 28
26746 33431 33433 28
26747 33431 33434 28
26748 33431 33435 28
26749 33436 33437 28
26750 33436 33438 28
26751 33436 33439 28
26752 33436 33440 28
26753 33441 33442 28
26754 33441 33443 28
26755 33441 33444 28
26756 33441 33445 28
26757 33446 33447 28
26758 33446 33448 28
26759 33446 33449 28
26760 33446 33450 28
26761 33451 33452 28
26762 33451 33453 28
26763 33451 33454 28
26764 33451 33455 28
26765 33456 33457 28
26766 33456 33458 28
26767 33456 33459 28
26768 33456 33460 28
26769 33461 33462 28
26770 33461 33463 28
26771 33461 33464 28
26772 33461 33465 28
26773 33466 33467 28
26774 33466 33468 28
26775 33466 33469 28
26776 33466 33470 28
26777 33471 33472 28
26778 33471 33473 28
26779 33471 33474 28
26780 33471 33475 28
26781 33476 33477 28
26782 33476 33478 28
26783 33476 33479 28
26784 33476 33480 28
26785 33481 33482 28
26786 33481 33483 28
26787 33481 33484 28
26788 33481 33485 28
26789 33486 33487 28
26790 33486 33488 28
26791 33486 33489 28
26792 33486 33490 28
26793 33491 33492 28
26794 33491 33493 28
26795 33491 33494 28
26796 33491 33495 28
26797 33496 33497 28
26798 33496 33498 28
26799 33496 33499 28
26800 33496 33500 28
26801 33501 33502 28
26802 33501 33503 28
26803 33501 33504 28
26804 33501 33505 28
26805 33506 33507 28
26806 33506 33508 28
26807 33506 33509 28
26808 33506 33510 28
26809 33511 33512 28
26810 33511 33513 28
26811 33511 33514 28
26812 33511 33515 28
26813 33516 33517 28
26814 33516 33518 28
26815 33516 33519 28
26816 33516 33520 28
26817 33521 33522 28
26818 33521 33523 28
26819 33521 33524 28
26820 33521 33525 28
26821 33526 33527 28
26822 33526 33528 28
26823 33526 33529 28
26824 33526 33530 28
26825 33531 33532 28
26826 33531 33533 28
26827 33531 33534 28
26828 33531 33535 28
26829 33536 33537 28
26830 33536 33538 28
26831 33536 33539 28
26832 33536 33540 28
26833 33541 33542 28
26834 33541 33543 28
26835 33541 33544 28
26836 33541 33545 28
26837 33546 33547 28
26838 33546 33548 28
26839 33546 33549 28
26840 33546 33550 28
26841 33551 33552 28
26842 33551 33553 28
26843 33551 33554 28
26844 33551 33555 28
26845 33556 33557 28
26846 33556 33558 28
26847 33556 33559 28
26848 33556 33560 28
26849 33561 33562 28
26850 33561 33563 28
26851 33561 33564 28
26852 33561 33565 28
26853 33566 33567 28
26854 33566 33568 28
26855 33566 33569 28
26856 33566 33570 28
26857 33571 33572 28
26858 33571 33573 28
26859 33571 33574 28
26860 33571 33575 28
26861 33576 33577 28
26862 33576 33578 28
26863 33576 33579 28
26864 33576 33580 28
26865 33581 33582 28
26866 33581 33583 28
26867 33581 33584 28
26868 33581 33585 28
26869 33586 33587 28
26870 33586 33588 28
26871 33586 33589 28
26872 33586 33590 28
26873 33591 33592 28
26874 33591 33593 28
26875 33591 33594 28
26876 33591 33595 28
26877 33596 33597 28
26878 33596 33598 28
26879 33596 33599 28
26880 33596 33600 28
26881 33601 33602 28
26882 33601 33603 28
26883 33601 33604 28
26884 33601 33605 28
26885 33606 33607 28
26886 33606 33608 28
26887 33606 33609 28
26888 33606 33610 28
26889 33611 33612 28
26890 33611 33613 28
26891 33611 33614 28
26892 33611 33615 28
26893 33616 33617 28
26894 33616 33618 28
26895 33616 33619 28
26896 33616 33620 28
26897 33621 33622 28
26898 33621 33623 28
26899 33621 33624 28
26900 33621 33625 28
26901 33626 33627 28
26902 33626 33628 28
26903 33626 33629 28
26904 33626 33630 28
26905 33631 33632 28
26906 33631 33633 28
26907 33631 33634 28
26908 33631 33635 28
26909 33636 33637 28
26910 33636 33638 28
26911 33636 33639 28
26912 33636 33640 28
26913 33641 33642 28
26914 33641 33643 28
26915 33641 33644 28
26916 33641 33645 28
26917 33646 33647 28
26918 33646 33648 28
26919 33646 33649 28
26920 33646 33650 28
26921 33651 33652 28
26922 33651 33653 28
26923 33651 33654 28
26924 33651 33655 28
26925 33656 33657 28
26926 33656 33658 28
26927 33656 33659 28
26928 33656 33660 28
26929 33661 33662 28
26930 33661 33663 28
26931 33661 33664 28
26932 33661 33665 28
26933 33666 33667 28
26934 33666 33668 28
26935 33666 33669 28
26936 33666 33670 28
26937 33671 33672 28
26938 33671 33673 28
26939 33671 33674 28
26940 33671 33675 28
26941 33676 33677 28
26942 33676 33678 28
26943 33676 33679 28
26944 33676 33680 28
26945 33681 33682 28
26946 33681 33683 28
26947 33681 33684 28
26948 33681 33685 28
26949 33686 33687 28
26950 33686 33688 28
26951 33686 33689 28
26952 33686 33690 28
26953 33691 33692 28
26954 33691 33693 28
26955 33691 33694 28
26956 33691 33695 28
26957 33696 33697 28
26958 33696 33698 28
26959 33696 33699 28
26960 33696 33700 28
26961 33701 33702 28
26962 33701 33703 28
26963 33701 33704 28
26964 33701 33705 28
26965 33706 33707 28
26966 33706 33708 28
26967 33706 33709 28
26968 33706 33710 28
26969 33711 33712 28
26970 33711 33713 28
26971 33711 33714 28
26972 33711 33715 28
26973 33716 33717 28
26974 33716 33718 28
26975 33716 33719 28
26976 33716 33720 28
26977 33721 33722 28
26978 33721 33723 28
26979 33721 33724 28
26980 33721 33725 28
26981 33726 33727 28
26982 33726 33728 28
26983 33726 33729 28
26984 33726 33730 28
26985 33731 33732 28
26986 33731 33733 28
26987 33731 33734 28
26988 33731 33735 28
26989 33736 33737 28
26990 33736 33738 28
26991 33736 33739 28
26992 33736 33740 28
26993 33741 33742 28
26994 33741 33743 28
26995 33741 33744 28
26996 33741 33745 28
26997 33746 33747 28
26998 33746 33748 28
26999 33746 33749 28
27000 33746 33750 28
27001 33751 33752 28
27002 33751 33753 28
27003 33751 33754 28
27004 33751 33755 28
27005 33756 33757 28
27006 33756 33758 28
27007 33756 33759 28
27008 33756 33760 28
27009 33761 33762 28
27010 33761 33763 28
27011 33761 33764 28
27012 33761 33765 28
27013 33766 33767 28
27014 33766 33768 28
27015 33766 33769 28
27016 33766 33770 28
27017 33771 33772 28
27018 33771 33773 28
27019 33771 33774 28
27020 33771 33775 28
27021 33776 33777 28
27022 33776 33778 28
27023 33776 33779 28
27024 33776 33780 28
27025 33781 33782 28
27026 33781 33783 28
27027 33781 33784 28
27028 33781 33785 28
27029 33786 33787 28
27030 33786 33788 28
27031 33786 33789 28
27032 33786 33790 28
27033 33791 33792 28
27034 33791 33793 28
27035 33791 33794 28
27036 33791 33795 28
27037 33796 33797 28
27038 33796 33798 28
27039 33796 33799 28
27040 33796 33800 28
27041 33801 33802 28
27042 33801 33803 28
27043 33801 33804 28
27044 33801 33805 28
27045 33806 33807 28
27046 33806 33808 28
27047 33806 33809 28
27048 33806 33810 28
27049 33811 33812 28
27050 33811 33813 28
27051 33811 33814 28
27052 33811 33815 28
27053 33816 33817 28
27054 33816 33818 28
27055 33816 33819 28
27056 33816 33820 28
27057 33821 33822 28
27058 33821 33823 28
27059 33821 33824 28
27060 33821 33825 28
27061 33826 33827 28
27062 33826 33828 28
27063 33826 33829 28
27064 33826 33830 28
27065 33831 33832 28
27066 33831 33833 28
27067 33831 33834 28
27068 33831 33835 28
27069 33836 33837 28
27070 33836 33838 28
27071 33836 33839 28
27072 33836 33840 28
27073 33841 33842 28
27074 33841 33843 28
27075 33841 33844 28
27076 33841 33845 28
27077 33846 33847 28
27078 33846 33848 28
27079 33846 33849 28
27080 33846 33850 28
27081 33851 33852 28
27082 33851 33853 28
27083 33851 33854 28
27084 33851 33855 28
27085 33856 33857 28
27086 33856 33858 28
27087 33856 33859 28
27088 33856 33860 28
27089 33861 33862 28
27090 33861 33863 28
27091 33861 33864 28
27092 33861 33865 28
27093 33866 33867 28
27094 33866 33868 28
27095 33866 33869 28
27096 33866 33870 28
27097 33871 33872 28
27098 33871 33873 28
27099 33871 33874 28
27100 33871 33875 28
27101 33876 33877 28
27102 33876 33878 28
27103 33876 33879 28
27104 33876 33880 28
27105 33881 33882 28
27106 33881 33883 28
27107 33881 33884 28
27108 33881 33885 28
27109 33886 33887 28
27110 33886 33888 28
27111 33886 33889 28
27112 33886 33890 28
27113 33891 33892 28
27114 33891 33893 28
27115 33891 33894 28
27116 33891 33895 28
27117 33896 33897 28
27118 33896 33898 28
27119 33896 33899 28
27120 33896 33900 28
27121 33901 33902 28
27122 33901 33903 28
27123 33901 33904 28
27124 33901 33905 28
27125 33906 33907 28
27126 33906 33908 28
27127 33906 33909 28
27128 33906 33910 28
27129 33911 33912 28
27130 33911 33913 28
27131 33911 33914 28
27132 33911 33915 28
27133 33916 33917 28
27134 33916 33918 28
27135 33916 33919 28
27136 33916 33920 28
27137 33921 33922 28
27138 33921 33923 28
27139 33921 33924 28
27140 33921 33925 28
27141 33926 33927 28
27142 33926 33928 28
27143 33926 33929 28
27144 33926 33930 28
27145 33931 33932 28
27146 33931 33933 28
27147 33931 33934 28
27148 33931 33935 28
27149 33936 33937 28
27150 33936 33938 28
27151 33936 33939 28
27152 33936 33940 28
27153 33941 33942 28
27154 33941 33943 28
27155 33941 33944 28
27156 33941 33945 28
27157 33946 33947 28
27158 33946 33948 28
27159 33946 33949 28
27160 33946 33950 28
27161 33951 33952 28
27162 33951 33953 28
27163 33951 33954 28
27164 33951 33955 28
27165 33956 33957 28
27166 33956 33958 28
27167 33956 33959 28
27168 33956 33960 28
27169 33961 33962 28
27170 33961 33963 28
27171 33961 33964 28
27172 33961 33965 28
27173 33966 33967 28
27174 33966 33968 28
27175 33966 33969 28
27176 33966 33970 28
27177 33971 33972 28
27178 33971 33973 28
27179 33971 33974 28
27180 33971 33975 28
27181 33976 33977 28
27182 33976 33978 28
27183 33976 33979 28
27184 33976 33980 28
27185 33981 33982 28
27186 33981 33983 28
27187 33981 33984 28
27188 33981 33985 28
27189 33986 33987 28
27190 33986 33988 28
27191 33986 33989 28
27192 33986 33990 28
27193 33991 33992 28
27194 33991 33993 28
27195 33991 33994 28
27196 33991 33995 28
27197 33996 33997 28
27198 33996 33998 28
27199 33996 33999 28
27200 33996 34000 28
27201 34001 34002 28
27202 34001 34003 28
27203 34001 34004 28
27204 34001 34005 28
27205 34006 34007 28
27206 34006 34008 28
27207 34006 34009 28
27208 34006 34010 28
27209 34011 34012 28
27210 34011 34013 28
27211 34011 34014 28
27212 34011 34015 28
27213 34016 34017 28
27214 34016 34018 28
27215 34016 34019 28
27216 34016 34020 28
27217 34021 34022 28
27218 34021 34023 28
27219 34021 34024 28
27220 34021 34025 28
27221 34026 34027 28
27222 34026 34028 28
27223 34026 34029 28
27224 34026 34030 28
27225 34031 34032 28
27226 34031 34033 28
27227 34031 34034 28
27228 34031 34035 28
27229 34036 34037 28
27230 34036 34038 28
27231 34036 34039 28
27232 34036 34040 28
27233 34041 34042 28
27234 34041 34043 28
27235 34041 34044 28
27236 34041 34045 28
27237 34046 34047 28
27238 34046 34048 28
27239 34046 34049 28
27240 34046 34050 28
27241 34051 34052 28
27242 34051 34053 28
27243 34051 34054 28
27244 34051 34055 28
27245 34056 34057 28
27246 34056 34058 28
27247 34056 34059 28
27248 34056 34060 28
27249 34061 34062 28
27250 34061 34063 28
27251 34061 34064 28
27252 34061 34065 28
27253 34066 34067 28
27254 34066 34068 28
27255 34066 34069 28
27256 34066 34070 28
27257 34071 34072 28
27258 34071 34073 28
27259 34071 34074 28
27260 34071 34075 28
27261 34076 34077 28
27262 34076 34078 28
27263 34076 34079 28
27264 34076 34080 28
27265 34081 34082 28
27266 34081 34083 28
27267 34081 34084 28
27268 34081 34085 28
27269 34086 34087 28
27270 34086 34088 28
27271 34086 34089 28
27272 34086 34090 28
27273 34091 34092 28
27274 34091 34093 28
27275 34091 34094 28
27276 34091 34095 28
27277 34096 34097 28
27278 34096 34098 28
27279 34096 34099 28
27280 34096 34100 28
27281 34101 34102 28
27282 34101 34103 28
27283 34101 34104 28
27284 34101 34105 28
27285 34106 34107 28
27286 34106 34108 28
27287 34106 34109 28
27288 34106 34110 28
27289 34111 34112 28
27290 34111 34113 28
27291 34111 34114 28
27292 34111 34115 28
27293 34116 34117 28
27294 34116 34118 28
27295 34116 34119 28
27296 34116 34120 28
27297 34121 34122 28
27298 34121 34123 28
27299 34121 34124 28
27300 34121 34125 28
27301 34126 34127 28
27302 34126 34128 28
27303 34126 34129 28
27304 34126 34130 28
27305 34131 34132 28
27306 34131 34133 28
27307 34131 34134 28
27308 34131 34135 28
27309 34136 34137 28
27310 34136 34138 28
27311 34136 34139 28
27312 34136 34140 28
27313 34141 34142 28
27314 34141 34143 28
27315 34141 34144 28
27316 34141 34145 28
27317 34146 34147 28
27318 34146 34148 28
27319 34146 34149 28
27320 34146 34150 28
27321 34151 34152 28
27322 34151 34153 28
27323 34151 34154 28
27324 34151 34155 28
27325 34156 34157 28
27326 34156 34158 28
27327 34156 34159 28
27328 34156 34160 28
27329 34161 34162 28
27330 34161 34163 28
27331 34161 34164 28
27332 34161 34165 28
27333 34166 34167 28
27334 34166 34168 28
27335 34166 34169 28
27336 34166 34170 28
27337 34171 34172 28
27338 34171 34173 28
27339 34171 34174 28
27340 34171 34175 28
27341 34176 34177 28
27342 34176 34178 28
27343 34176 34179 28
27344 34176 34180 28
27345 34181 34182 28
27346 34181 34183 28
27347 34181 34184 28
27348 34181 34185 28
27349 34186 34187 28
27350 34186 34188 28
27351 34186 34189 28
27352 34186 34190 28
27353 34191 34192 28
27354 34191 34193 28
27355 34191 34194 28
27356 34191 34195 28
27357 34196 34197 28
27358 34196 34198 28
27359 34196 34199 28
27360 34196 34200 28
27361 34201 34202 28
27362 34201 34203 28
27363 34201 34204 28
27364 34201 34205 28
27365 34206 34207 28
27366 34206 34208 28
27367 34206 34209 28
27368 34206 34210 28
27369 34211 34212 28
27370 34211 34213 28
27371 34211 34214 28
27372 34211 34215 28
27373 34216 34217 28
27374 34216 34218 28
27375 34216 34219 28
27376 34216 34220 28
27377 34221 34222 28
27378 34221 34223 28
27379 34221 34224 28
27380 34221 34225 28
27381 34226 34227 28
27382 34226 34228 28
27383 34226 34229 28
27384 34226 34230 28
27385 34231 34232 28
27386 34231 34233 28
27387 34231 34234 28
27388 34231 34235 28
27389 34236 34237 28
27390 34236 34238 28
27391 34236 34239 28
27392 34236 34240 28
27393 34241 34242 28
27394 34241 34243 28
27395 34241 34244 28
27396 34241 34245 28
27397 34246 34247 28
27398 34246 34248 28
27399 34246 34249 28
27400 34246 34250 28
27401 34251 34252 28
27402 34251 34253 28
27403 34251 34254 28
27404 34251 34255 28
27405 34256 34257 28
27406 34256 34258 28
27407 34256 34259 28
27408 34256 34260 28
27409 34261 34262 28
27410 34261 34263 28
27411 34261 34264 28
27412 34261 34265 28
27413 34266 34267 28
27414 34266 34268 28
27415 34266 34269 28
27416 34266 34270 28
27417 34271 34272 28
27418 34271 34273 28
27419 34271 34274 28
27420 34271 34275 28
27421 34276 34277 28
27422 34276 34278 28
27423 34276 34279 28
27424 34276 34280 28
27425 34281 34282 28
27426 34281 34283 28
27427 34281 34284 28
27428 34281 34285 28
27429 34286 34287 28
27430 34286 34288 28
27431 34286 34289 28
27432 34286 34290 28
27433 34291 34292 28
27434 34291 34293 28
27435 34291 34294 28
27436 34291 34295 28
27437 34296 34297 28
27438 34296 34298 28
27439 34296 34299 28
27440 34296 34300 28
27441 34301 34302 28
27442 34301 34303 28
27443 34301 34304 28
27444 34301 34305 28
27445 34306 34307 28
27446 34306 34308 28
27447 34306 34309 28
27448 34306 34310 28
27449 34311 34312 28
27450 34311 34313 28
27451 34311 34314 28
27452 34311 34315 28
27453 34316 34317 28
27454 34316 34318 28
27455 34316 34319 28
27456 34316 34320 28
27457 34321 34322 28
27458 34321 34323 28
27459 34321 34324 28
27460 34321 34325 28
27461 34326 34327 28
27462 34326 34328 28
27463 34326 34329 28
27464 34326 34330 28
27465 34331 34332 28
27466 34331 34333 28
27467 34331 34334 28
27468 34331 34335 28
27469 34336 34337 28
27470 34336 34338 28
27471 34336 34339 28
27472 34336 34340 28
27473 34341 34342 28
27474 34341 34343 28
27475 34341 34344 28
27476 34341 34345 28
27477 34346 34347 28
27478 34346 34348 28
27479 34346 34349 28
27480 34346 34350 28
27481 34351 34352 28
27482 34351 34353 28
27483 34351 34354 28
27484 34351 34355 28
27485 34356 34357 28
27486 34356 34358 28
27487 34356 34359 28
27488 34356 34360 28
27489 34361 34362 28
27490 34361 34363 28
27491 34361 34364 28
27492 34361 34365 28
27493 34366 34367 28
27494 34366 34368 28
27495 34366 34369 28
27496 34366 34370 28
27497 34371 34372 28
27498 34371 34373 28
27499 34371 34374 28
27500 34371 34375 28
27501 34376 34377 28
27502 34376 34378 28
27503 34376 34379 28
27504 34376 34380 28
27505 34381 34382 28
27506 34381 34383 28
27507 34381 34384 28
27508 34381 34385 28
27509 34386 34387 28
27510 34386 34388 28
27511 34386 34389 28
27512 34386 34390 28
27513 34391 34392 28
27514 34391 34393 28
27515 34391 34394 28
27516 34391 34395 28
27517 34396 34397 28
27518 34396 34398 28
27519 34396 34399 28
27520 34396 34400 28
27521 34401 34402 28
27522 34401 34403 28
27523 34401 34404 28
27524 34401 34405 28
27525 34406 34407 28
27526 34406 34408 28
27527 34406 34409 28
27528 34406 34410 28
27529 34411 34412 28
27530 34411 34413 28
27531 34411 34414 28
27532 34411 34415 28
27533 34416 34417 28
27534 34416 34418 28
27535 34416 34419 28
27536 34416 34420 28
27537 34421 34422 28
27538 34421 34423 28
27539 34421 34424 28
27540 34421 34425 28
27541 34426 34427 28
27542 34426 34428 28
27543 34426 34429 28
27544 34426 34430 28
27545 34431 34432 28
27546 34431 34433 28
27547 34431 34434 28
27548 34431 34435 28
27549 34436 34437 28
27550 34436 34438 28
27551 34436 34439 28
27552 34436 34440 28
27553 34441 34442 28
27554 34441 34443 28
27555 34441 34444 28
27556 34441 34445 28
27557 34446 34447 28
27558 34446 34448 28
27559 34446 34449 28
27560 34446 34450 28
27561 34451 34452 28
27562 34451 34453 28
27563 34451 34454 28
27564 34451 34455 28
27565 34456 34457 28
27566 34456 34458 28
27567 34456 34459 28
27568 34456 34460 28
27569 34461 34462 28
27570 34461 34463 28
27571 34461 34464 28
27572 34461 34465 28
27573 34466 34467 28
27574 34466 34468 28
27575 34466 34469 28
27576 34466 34470 28
27577 34471 34472 28
27578 34471 34473 28
27579 34471 34474 28
27580 34471 34475 28
27581 34476 34477 28
27582 34476 34478 28
27583 34476 34479 28
27584 34476 34480 28
27585 34481 34482 28
27586 34481 34483 28
27587 34481 34484 28
27588 34481 34485 28
27589 34486 34487 28
27590 34486 34488 28
27591 34486 34489 28
27592 34486 34490 28
27593 34491 34492 28
27594 34491 34493 28
27595 34491 34494 28
27596 34491 34495 28
27597 34496 34497 28
27598 34496 34498 28
27599 34496 34499 28
27600 34496 34500 28
27601 34501 34502 28
27602 34501 34503 28
27603 34501 34504 28
27604 34501 34505 28
27605 34506 34507 28
27606 34506 34508 28
27607 34506 34509 28
27608 34506 34510 28
27609 34511 34512 28
27610 34511 34513 28
27611 34511 34514 28
27612 34511 34515 28
27613 34516 34517 28
27614 34516 34518 28
27615 34516 34519 28
27616 34516 34520 28
27617 34521 34522 28
27618 34521 34523 28
27619 34521 34524 28
27620 34521 34525 28
27621 34526 34527 28
27622 34526 34528 28
27623 34526 34529 28
27624 34526 34530 28
27625 34531 34532 28
27626 34531 34533 28
27627 34531 34534 28
27628 34531 34535 28
27629 34536 34537 28
27630 34536 34538 28
27631 34536 34539 28
27632 34536 34540 28
27633 34541 34542 28
27634 34541 34543 28
27635 34541 34544 28
27636 34541 34545 28
27637 34546 34547 28
27638 34546 34548 28
27639 34546 34549 28
27640 34546 34550 28
27641 34551 34552 28
27642 34551 34553 28
27643 34551 34554 28
27644 34551 34555 28
27645 34556 34557 28
27646 34556 34558 28
27647 34556 34559 28
27648 34556 34560 28
27649 34561 34562 28
27650 34561 34563 28
27651 34561 34564 28
27652 34561 34565 28
27653 34566 34567 28
27654 34566 34568 28
27655 34566 34569 28
27656 34566 34570 28
27657 34571 34572 28
27658 34571 34573 28
27659 34571 34574 28
27660 34571 34575 28
27661 34576 34577 28
27662 34576 34578 28
27663 34576 34579 28
27664 34576 34580 28
27665 34581 34582 28
27666 34581 34583 28
27667 34581 34584 28
27668 34581 34585 28
27669 34586 34587 28
27670 34586 34588 28
27671 34586 34589 28
27672 34586 34590 28
27673 34591 34592 28
27674 34591 34593 28
27675 34591 34594 28
27676 34591 34595 28
27677 34596 34597 28
27678 34596 34598 28
27679 34596 34599 28
27680 34596 34600 28
27681 34601 34602 28
27682 34601 34603 28
27683 34601 34604 28
27684 34601 34605 28
27685 34606 34607 28
27686 34606 34608 28
27687 34606 34609 28
27688 34606 34610 28
27689 34611 34612 28
27690 34611 34613 28
27691 34611 34614 28
27692 34611 34615 28
27693 34616 34617 28
27694 34616 34618 28
27695 34616 34619 28
27696 34616 34620 28
27697 34621 34622 28
27698 34621 34623 28
27699 34621 34624 28
27700 34621 34625 28
27701 34626 34627 28
27702 34626 34628 28
27703 34626 34629 28
27704 34626 34630 28
27705 34631 34632 28
27706 34631 34633 28
27707 34631 34634 28
27708 34631 34635 28
27709 34636 34637 28
27710 34636 34638 28
27711 34636 34639 28
27712 34636 34640 28
27713 34641 34642 28
27714 34641 34643 28
27715 34641 34644 28
27716 34641 34645 28
27717 34646 34647 28
27718 34646 34648 28
27719 34646 34649 28
27720 34646 34650 28
27721 34651 34652 28
27722 34651 34653 28
27723 34651 34654 28
27724 34651 34655 28
27725 34656 34657 28
27726 34656 34658 28
27727 34656 34659 28
27728 34656 34660 28
27729 34661 34662 28
27730 34661 34663 28
27731 34661 34664 28
27732 34661 34665 28
27733 34666 34667 28
27734 34666 34668 28
27735 34666 34669 28
27736 34666 34670 28
27737 34671 34672 28
27738 34671 34673 28
27739 34671 34674 28
27740 34671 34675 28
27741 34676 34677 28
27742 34676 34678 28
27743 34676 34679 28
27744 34676 34680 28
27745 34681 34682 28
27746 34681 34683 28
27747 34681 34684 28
27748 34681 34685 28
27749 34686 34687 28
27750 34686 34688 28
27751 34686 34689 28
27752 34686 34690 28
27753 34691 34692 28
27754 34691 34693 28
27755 34691 34694 28
27756 34691 34695 28
27757 34696 34697 28
27758 34696 34698 28
27759 34696 34699 28
27760 34696 34700 28
27761 34701 34702 28
27762 34701 34703 28
27763 34701 34704 28
27764 34701 34705 28
27765 34706 34707 28
27766 34706 34708 28
27767 34706 34709 28
27768 34706 34710 28
27769 34711 34712 28
27770 34711 34713 28
27771 34711 34714 28
27772 34711 34715 28
27773 34716 34717 28
27774 34716 34718 28
27775 34716 34719 28
27776 34716 34720 28
27777 34721 34722 28
27778 34721 34723 28
27779 34721 34724 28
27780 34721 34725 28
27781 34726 34727 28
27782 34726 34728 28
27783 34726 34729 28
27784 34726 34730 28
27785 34731 34732 28
27786 34731 34733 28
27787 34731 34734 28
27788 34731 34735 28
27789 34736 34737 28
27790 34736 34738 28
27791 34736 34739 28
27792 34736 34740 28
27793 34741 34742 28
27794 34741 34743 28
27795 34741 34744 28
27796 34741 34745 28
27797 34746 34747 28
27798 34746 34748 28
27799 34746 34749 28
27800 34746 34750 28
27801 34751 34752 28
27802 34751 34753 28
27803 34751 34754 28
27804 34751 34755 28
27805 34756 34757 28
27806 34756 34758 28
27807 34756 34759 28
27808 34756 34760 28
27809 34761 34762 28
27810 34761 34763 28
27811 34761 34764 28
27812 34761 34765 28
27813 34766 34767 28
27814 34766 34768 28
27815 34766 34769 28
27816 34766 34770 28
27817 34771 34772 28
27818 34771 34773 28
27819 34771 34774 28
27820 34771 34775 28
27821 34776 34777 28
27822 34776 34778 28
27823 34776 34779 28
27824 34776 34780 28
27825 34781 34782 28
27826 34781 34783 28
27827 34781 34784 28
27828 34781 34785 28
27829 34786 34787 28
27830 34786 34788 28
27831 34786 34789 28
27832 34786 34790 28
27833 34791 34792 28
27834 34791 34793 28
27835 34791 34794 28
27836 34791 34795 28
27837 34796 34797 28
27838 34796 34798 28
27839 34796 34799 28
27840 34796 34800 28
27841 34801 34802 28
27842 34801 34803 28
27843 34801 34804 28
27844 34801 34805 28
27845 34806 34807 28
27846 34806 34808 28
27847 34806 34809 28
27848 34806 34810 28
27849 34811 34812 28
27850 34811 34813 28
27851 34811 34814 28
27852 34811 34815 28
27853 34816 34817 28
27854 34816 34818 28
27855 34816 34819 28
27856 34816 34820 28
27857 34821 34822 28
27858 34821 34823 28
27859 34821 34824 28
27860 34821 34825 28
27861 34826 34827 28
27862 34826 34828 28
27863 34826 34829 28
27864 34826 34830 28
27865 34831 34832 28
27866 34831 34833 28
27867 34831 34834 28
27868 34831 34835 28
27869 34836 34837 28
27870 34836 34838 28
27871 34836 34839 28
27872 34836 34840 28
27873 34841 34842 28
27874 34841 34843 28
27875 34841 34844 28
27876 34841 34845 28
27877 34846 34847 28
27878 34846 34848 28
27879 34846 34849 28
27880 34846 34850 28
27881 34851 34852 28
27882 34851 34853 28
27883 34851 34854 28
27884 34851 34855 28
27885 34856 34857 28
27886 34856 34858 28
27887 34856 34859 28
27888 34856 34860 28
27889 34861 34862 28
27890 34861 34863 28
27891 34861 34864 28
27892 34861 34865 28
27893 34866 34867 28
27894 34866 34868 28
27895 34866 34869 28
27896 34866 34870 28
27897 34871 34872 28
27898 34871 34873 28
27899 34871 34874 28
27900 34871 34875 28
27901 34876 34877 28
27902 34876 34878 28
27903 34876 34879 28
27904 34876 34880 28
27905 34881 34882 28
27906 34881 34883 28
27907 34881 34884 28
27908 34881 34885 28
27909 34886 34887 28
27910 34886 34888 28
27911 34886 34889 28
27912 34886 34890 28
27913 34891 34892 28
27914 34891 34893 28
27915 34891 34894 28
27916 34891 34895 28
27917 34896 34897 28
27918 34896 34898 28
27919 34896 34899 28
27920 34896 34900 28
27921 34901 34902 28
27922 34901 34903 28
27923 34901 34904 28
27924 34901 34905 28
27925 34906 34907 28
27926 34906 34908 28
27927 34906 34909 28
27928 34906 34910 28
27929 34911 34912 28
27930 34911 34913 28
27931 34911 34914 28
27932 34911 34915 28
27933 34916 34917 28
27934 34916 34918 28
27935 34916 34919 28
27936 34916 34920 28
27937 34921 34922 28
27938 34921 34923 28
27939 34921 34924 28
27940 34921 34925 28
27941 34926 34927 28
27942 34926 34928 28
27943 34926 34929 28
27944 34926 34930 28
27945 34931 34932 28
27946 34931 34933 28
27947 34931 34934 28
27948 34931 34935 28
27949 34936 34937 28
27950 34936 34938 28
27951 34936 34939 28
27952 34936 34940 28
27953 34941 34942 28
27954 34941 34943 28
27955 34941 34944 28
27956 34941 34945 28
27957 34946 34947 28
27958 34946 34948 28
27959 34946 34949 28
27960 34946 34950 28
27961 34951 34952 28
27962 34951 34953 28
27963 34951 34954 28
27964 34951 34955 28
27965 34956 34957 28
27966 34956 34958 28
27967 34956 34959 28
27968 34956 34960 28
27969 34961 34962 28
27970 34961 34963 28
27971 34961 34964 28
27972 34961 34965 28
27973 34966 34967 28
27974 34966 34968 28
27975 34966 34969 28
27976 34966 34970 28
27977 34971 34972 28
27978 34971 34973 28
27979 34971 34974 28
27980 34971 34975 28
27981 34976 34977 28
27982 34976 34978 28
27983 34976 34979 28
27984 34976 34980 28
27985 34981 34982 28
27986 34981 34983 28
27987 34981 34984 28
27988 34981 34985 28
27989 34986 34987 28
27990 34986 34988 28
27991 34986 34989 28
27992 34986 34990 28
27993 34991 34992 28
27994 34991 34993 28
27995 34991 34994 28
27996 34991 34995 28
27997 34996 34997 28
27998 34996 34998 28
27999 34996 34999 28
28000 34996 35000 28
28001 35001 35002 28
28002 35001 35003 28
28003 35001 35004 28
28004 35001 35005 28
28005 35006 35007 28
28006 35006 35008 28
28007 35006 35009 28
28008 35006 35010 28
28009 35011 35012 28
28010 35011 35013 28
28011 35011 35014 28
28012 35011 35015 28
28013 35016 35017 28
28014 35016 35018 28
28015 35016 35019 28
28016 35016 35020 28
28017 35021 35022 28
28018 35021 35023 28
28019 35021 35024 28
28020 35021 35025 28
28021 35026 35027 28
28022 35026 35028 28
28023 35026 35029 28
28024 35026 35030 28
28025 35031 35032 28
28026 35031 35033 28
28027 35031 35034 28
28028 35031 35035 28
28029 35036 35037 28
28030 35036 35038 28
28031 35036 35039 28
28032 35036 35040 28
28033 35041 35042 28
28034 35041 35043 28
28035 35041 35044 28
28036 35041 35045 28
28037 35046 35047 28
28038 35046 35048 28
28039 35046 35049 28
28040 35046 35050 28
28041 35051 35052 28
28042 35051 35053 28
28043 35051 35054 28
28044 35051 35055 28
28045 35056 35057 28
28046 35056 35058 28
28047 35056 35059 28
28048 35056 35060 28
28049 35061 35062 28
28050 35061 35063 28
28051 35061 35064 28
28052 35061 35065 28
28053 35066 35067 28
28054 35066 35068 28
28055 35066 35069 28
28056 35066 35070 28
28057 35071 35072 28
28058 35071 35073 28
28059 35071 35074 28
28060 35071 35075 28
28061 35076 35077 28
28062 35076 35078 28
28063 35076 35079 28
28064 35076 35080 28
28065 35081 35082 28
28066 35081 35083 28
28067 35081 35084 28
28068 35081 35085 28
28069 35086 35087 28
28070 35086 35088 28
28071 35086 35089 28
28072 35086 35090 28
28073 35091 35092 28
28074 35091 35093 28
28075 35091 35094 28
28076 35091 35095 28
28077 35096 35097 28
28078 35096 35098 28
28079 35096 35099 28
28080 35096 35100 28
28081 35101 35102 28
28082 35101 35103 28
28083 35101 35104 28
28084 35101 35105 28
28085 35106 35107 28
28086 35106 35108 28
28087 35106 35109 28
28088 35106 35110 28
28089 35111 35112 28
28090 35111 35113 28
28091 35111 35114 28
28092 35111 35115 28
28093 35116 35117 28
28094 35116 35118 28
28095 35116 35119 28
28096 35116 35120 28
28097 35121 35122 28
28098 35121 35123 28
28099 35121 35124 28
28100 35121 35125 28
28101 35126 35127 28
28102 35126 35128 28
28103 35126 35129 28
28104 35126 35130 28
28105 35131 35132 28
28106 35131 35133 28
28107 35131 35134 28
28108 35131 35135 28
28109 35136 35137 28
28110 35136 35138 28
28111 35136 35139 28
28112 35136 35140 28
28113 35141 35142 28
28114 35141 35143 28
28115 35141 35144 28
28116 35141 35145 28
28117 35146 35147 28
28118 35146 35148 28
28119 35146 35149 28
28120 35146 35150 28
28121 35151 35152 28
28122 35151 35153 28
28123 35151 35154 28
28124 35151 35155 28
28125 35156 35157 28
28126 35156 35158 28
28127 35156 35159 28
28128 35156 35160 28
28129 35161 35162 28
28130 35161 35163 28
28131 35161 35164 28
28132 35161 35165 28
28133 35166 35167 28
28134 35166 35168 28
28135 35166 35169 28
28136 35166 35170 28
28137 35171 35172 28
28138 35171 35173 28
28139 35171 35174 28
28140 35171 35175 28
28141 35176 35177 28
28142 35176 35178 28
28143 35176 35179 28
28144 35176 35180 28
28145 35181 35182 28
28146 35181 35183 28
28147 35181 35184 28
28148 35181 35185 28
28149 35186 35187 28
28150 35186 35188 28
28151 35186 35189 28
28152 35186 35190 28
28153 35191 35192 28
28154 35191 35193 28
28155 35191 35194 28
28156 35191 35195 28
28157 35196 35197 28
28158 35196 35198 28
28159 35196 35199 28
28160 35196 35200 28
28161 35201 35202 28
28162 35201 35203 28
28163 35201 35204 28
28164 35201 35205 28
28165 35206 35207 28
28166 35206 35208 28
28167 35206 35209 28
28168 35206 35210 28
28169 35211 35212 28
28170 35211 35213 28
28171 35211 35214 28
28172 35211 35215 28
28173 35216 35217 28
28174 35216 35218 28
28175 35216 35219 28
28176 35216 35220 28
28177 35221 35222 28
28178 35221 35223 28
28179 35221 35224 28
28180 35221 35225 28
28181 35226 35227 28
28182 35226 35228 28
28183 35226 35229 28
28184 35226 35230 28
28185 35231 35232 28
28186 35231 35233 28
28187 35231 35234 28
28188 35231 35235 28
28189 35236 35237 28
28190 35236 35238 28
28191 35236 35239 28
28192 35236 35240 28
28193 35241 35242 28
28194 35241 35243 28
28195 35241 35244 28
28196 35241 35245 28
28197 35246 35247 28
28198 35246 35248 28
28199 35246 35249 28
28200 35246 35250 28
28201 35251 35252 28
28202 35251 35253 28
28203 35251 35254 28
28204 35251 35255 28
28205 35256 35257 28
28206 35256 35258 28
28207 35256 35259 28
28208 35256 35260 28
28209 35261 35262 28
28210 35261 35263 28
28211 35261 35264 28
28212 35261 35265 28
28213 35266 35267 28
28214 35266 35268 28
28215 35266 35269 28
28216 35266 35270 28
28217 35271 35272 28
28218 35271 35273 28
28219 35271 35274 28
28220 35271 35275 28
28221 35276 35277 28
28222 35276 35278 28
28223 35276 35279 28
28224 35276 35280 28
28225 35281 35282 28
28226 35281 35283 28
28227 35281 35284 28
28228 35281 35285 28
28229 35286 35287 28
28230 35286 35288 28
28231 35286 35289 28
28232 35286 35290 28
28233 35291 35292 28
28234 35291 35293 28
28235 35291 35294 28
28236 35291 35295 28
28237 35296 35297 28
28238 35296 35298 28
28239 35296 35299 28
28240 35296 35300 28
28241 35301 35302 28
28242 35301 35303 28
28243 35301 35304 28
28244 35301 35305 28
28245 35306 35307 28
28246 35306 35308 28
28247 35306 35309 28
28248 35306 35310 28
28249 35311 35312 28
28250 35311 35313 28
28251 35311 35314 28
28252 35311 35315 28
28253 35316 35317 28
28254 35316 35318 28
28255 35316 35319 28
28256 35316 35320 28
28257 35321 35322 28
28258 35321 35323 28
28259 35321 35324 28
28260 35321 35325 28
28261 35326 35327 28
28262 35326 35328 28
28263 35326 35329 28
28264 35326 35330 28
28265 35331 35332 28
28266 35331 35333 28
28267 35331 35334 28
28268 35331 35335 28
28269 35336 35337 28
28270 35336 35338 28
28271 35336 35339 28
28272 35336 35340 28
28273 35341 35342 28
28274 35341 35343 28
28275 35341 35344 28
28276 35341 35345 28
28277 35346 35347 28
28278 35346 35348 28
28279 35346 35349 28
28280 35346 35350 28
28281 35351 35352 28
28282 35351 35353 28
28283 35351 35354 28
28284 35351 35355 28
28285 35356 35357 28
28286 35356 35358 28
28287 35356 35359 28
28288 35356 35360 28
28289 35361 35362 28
28290 35361 35363 28
28291 35361 35364 28
28292 35361 35365 28
28293 35366 35367 28
28294 35366 35368 28
28295 35366 35369 28
28296 35366 35370 28
28297 35371 35372 28
28298 35371 35373 28
28299 35371 35374 28
28300 35371 35375 28
28301 35376 35377 28
28302 35376 35378 28
28303 35376 35379 28
28304 35376 35380 28
28305 35381 35382 28
28306 35381 35383 28
28307 35381 35384 28
28308 35381 35385 28
28309 35386 35387 28
28310 35386 35388 28
28311 35386 35389 28
28312 35386 35390 28
28313 35391 35392 28
28314 35391 35393 28
28315 35391 35394 28
28316 35391 35395 28
28317 35396 35397 28
28318 35396 35398 28
28319 35396 35399 28
28320 35396 35400 28
28321 35401 35402 28
28322 35401 35403 28
28323 35401 35404 28
28324 35401 35405 28
28325 35406 35407 28
28326 35406 35408 28
28327 35406 35409 28
28328 35406 35410 28
28329 35411 35412 28
28330 35411 35413 28
28331 35411 35414 28
28332 35411 35415 28
28333 35416 35417 28
28334 35416 35418 28
28335 35416 35419 28
28336 35416 35420 28
28337 35421 35422 28
28338 35421 35423 28
28339 35421 35424 28
28340 35421 35425 28
28341 35426 35427 28
28342 35426 35428 28
28343 35426 35429 28
28344 35426 35430 28
28345 35431 35432 28
28346 35431 35433 28
28347 35431 35434 28
28348 35431 35435 28
28349 35436 35437 28
28350 35436 35438 28
28351 35436 35439 28
28352 35436 35440 28
28353 35441 35442 28
28354 35441 35443 28
28355 35441 35444 28
28356 35441 35445 28
28357 35446 35447 28
28358 35446 35448 28
28359 35446 35449 28
28360 35446 35450 28
28361 35451 35452 28
28362 35451 35453 28
28363 35451 35454 28
28364 35451 35455 28
28365 35456 35457 28
28366 35456 35458 28
28367 35456 35459 28
28368 35456 35460 28
28369 35461 35462 28
28370 35461 35463 28
28371 35461 35464 28
28372 35461 35465 28
28373 35466 35467 28
28374 35466 35468 28
28375 35466 35469 28
28376 35466 35470 28
28377 35471 35472 28
28378 35471 35473 28
28379 35471 35474 28
28380 35471 35475 28
28381 35476 35477 28
28382 35476 35478 28
28383 35476 35479 28
28384 35476 35480 28
28385 35481 35482 28
28386 35481 35483 28
28387 35481 35484 28
28388 35481 35485 28
28389 35486 35487 28
28390 35486 35488 28
28391 35486 35489 28
28392 35486 35490 28
28393 35491 35492 28
28394 35491 35493 28
28395 35491 35494 28
28396 35491 35495 28
28397 35496 35497 28
28398 35496 35498 28
28399 35496 35499 28
28400 35496 35500 28
28401 35501 35502 28
28402 35501 35503 28
28403 35501 35504 28
28404 35501 35505 28
28405 35506 35507 28
28406 35506 35508 28
28407 35506 35509 28
28408 35506 35510 28
28409 35511 35512 28
28410 35511 35513 28
28411 35511 35514 28
28412 35511 35515 28
28413 35516 35517 28
28414 35516 35518 28
28415 35516 35519 28
28416 35516 35520 28
28417 35521 35522 28
28418 35521 35523 28
28419 35521 35524 28
28420 35521 35525 28
28421 35526 35527 28
28422 35526 35528 28
28423 35526 35529 28
28424 35526 35530 28
28425 35531 35532 28
28426 35531 35533 28
28427 35531 35534 28
28428 35531 35535 28
28429 35536 35537 28
28430 35536 35538 28
28431 35536 35539 28
28432 35536 35540 28
28433 35541 35542 28
28434 35541 35543 28
28435 35541 35544 28
28436 35541 35545 28
28437 35546 35547 28
28438 35546 35548 28
28439 35546 35549 28
28440 35546 35550 28
28441 35551 35552 28
28442 35551 35553 28
28443 35551 35554 28
28444 35551 35555 28
28445 35556 35557 28
28446 35556 35558 28
28447 35556 35559 28
28448 35556 35560 28
28449 35561 35562 28
28450 35561 35563 28
28451 35561 35564 28
28452 35561 35565 28
28453 35566 35567 28
28454 35566 35568 28
28455 35566 35569 28
28456 35566 35570 28
28457 35571 35572 28
28458 35571 35573 28
28459 35571 35574 28
28460 35571 35575 28
28461 35576 35577 28
28462 35576 35578 28
28463 35576 35579 28
28464 35576 35580 28
28465 35581 35582 28
28466 35581 35583 28
28467 35581 35584 28
28468 35581 35585 28
28469 35586 35587 28
28470 35586 35588 28
28471 35586 35589 28
28472 35586 35590 28
28473 35591 35592 28
28474 35591 35593 28
28475 35591 35594 28
28476 35591 35595 28
28477 35596 35597 28
28478 35596 35598 28
28479 35596 35599 28
28480 35596 35600 28
28481 35601 35602 28
28482 35601 35603 28
28483 35601 35604 28
28484 35601 35605 28
28485 35606 35607 28
28486 35606 35608 28
28487 35606 35609 28
28488 35606 35610 28
28489 35611 35612 28
28490 35611 35613 28
28491 35611 35614 28
28492 35611 35615 28
28493 35616 35617 28
28494 35616 35618 28
28495 35616 35619 28
28496 35616 35620 28
28497 35621 35622 28
28498 35621 35623 28
28499 35621 35624 28
28500 35621 35625 28
28501 35626 35627 28
28502 35626 35628 28
28503 35626 35629 28
28504 35626 35630 28
28505 35631 35632 28
28506 35631 35633 28
28507 35631 35634 28
28508 35631 35635 28
28509 35636 35637 28
28510 35636 35638 28
28511 35636 35639 28
28512 35636 35640 28
28513 35641 35642 28
28514 35641 35643 28
28515 35641 35644 28
28516 35641 35645 28
28517 35646 35647 28
28518 35646 35648 28
28519 35646 35649 28
28520 35646 35650 28
28521 35651 35652 28
28522 35651 35653 28
28523 35651 35654 28
28524 35651 35655 28
28525 35656 35657 28
28526 35656 35658 28
28527 35656 35659 28
28528 35656 35660 28
28529 35661 35662 28
28530 35661 35663 28
28531 35661 35664 28
28532 35661 35665 28
28533 35666 35667 28
28534 35666 35668 28
28535 35666 35669 28
28536 35666 35670 28
28537 35671 35672 28
28538 35671 35673 28
28539 35671 35674 28
28540 35671 35675 28
28541 35676 35677 28
28542 35676 35678 28
28543 35676 35679 28
28544 35676 35680 28
28545 35681 35682 28
28546 35681 35683 28
28547 35681 35684 28
28548 35681 35685 28
28549 35686 35687 28
28550 35686 35688 28
28551 35686 35689 28
28552 35686 35690 28
28553 35691 35692 28
28554 35691 35693 28
28555 35691 35694 28
28556 35691 35695 28
28557 35696 35697 28
28558 35696 35698 28
28559 35696 35699 28
28560 35696 35700 28
28561 35701 35702 28
28562 35701 35703 28
28563 35701 35704 28
28564 35701 35705 28
28565 35706 35707 28
28566 35706 35708 28
28567 35706 35709 28
28568 35706 35710 28
28569 35711 35712 28
28570 35711 35713 28
28571 35711 35714 28
28572 35711 35715 28
28573 35716 35717 28
28574 35716 35718 28
28575 35716 35719 28
28576 35716 35720 28
28577 35721 35722 28
28578 35721 35723 28
28579 35721 35724 28
28580 35721 35725 28
28581 35726 35727 28
28582 35726 35728 28
28583 35726 35729 28
28584 35726 35730 28
28585 35731 35732 28
28586 35731 35733 28
28587 35731 35734 28
28588 35731 35735 28
28589 35736 35737 28
28590 35736 35738 28
28591 35736 35739 28
28592 35736 35740 28
28593 35741 35742 28
28594 35741 35743 28
28595 35741 35744 28
28596 35741 35745 28
28597 35746 35747 28
28598 35746 35748 28
28599 35746 35749 28
28600 35746 35750 28
28601 35751 35752 28
28602 35751 35753 28
28603 35751 35754 28
28604 35751 35755 28
28605 35756 35757 28
28606 35756 35758 28
28607 35756 35759 28
28608 35756 35760 28
28609 35761 35762 28
28610 35761 35763 28
28611 35761 35764 28
28612 35761 35765 28
28613 35766 35767 28
28614 35766 35768 28
28615 35766 35769 28
28616 35766 35770 28
28617 35771 35772 28
28618 35771 35773 28
28619 35771 35774 28
28620 35771 35775 28
28621 35776 35777 28
28622 35776 35778 28
28623 35776 35779 28
28624 35776 35780 28
28625 35781 35782 28
28626 35781 35783 28
28627 35781 35784 28
28628 35781 35785 28
28629 35786 35787 28
28630 35786 35788 28
28631 35786 35789 28
28632 35786 35790 28
28633 35791 35792 28
28634 35791 35793 28
28635 35791 35794 28
28636 35791 35795 28
28637 35796 35797 28
28638 35796 35798 28
28639 35796 35799 28
28640 35796 35800 28
28641 35801 35802 28
28642 35801 35803 28
28643 35801 35804 28
28644 35801 35805 28
28645 35806 35807 28
28646 35806 35808 28
28647 35806 35809 28
28648 35806 35810 28
28649 35811 35812 28
28650 35811 35813 28
28651 35811 35814 28
28652 35811 35815 28
28653 35816 35817 28
28654 35816 35818 28
28655 35816 35819 28
28656 35816 35820 28
28657 35821 35822 28
28658 35821 35823 28
28659 35821 35824 28
28660 35821 35825 28
28661 35826 35827 28
28662 35826 35828 28
28663 35826 35829 28
28664 35826 35830 28
28665 35831 35832 28
28666 35831 35833 28
28667 35831 35834 28
28668 35831 35835 28
28669 35836 35837 28
28670 35836 35838 28
28671 35836 35839 28
28672 35836 35840 28
28673 35841 35842 28
28674 35841 35843 28
28675 35841 35844 28
28676 35841 35845 28
28677 35846 35847 28
28678 35846 35848 28
28679 35846 35849 28
28680 35846 35850 28
28681 35851 35852 28
28682 35851 35853 28
28683 35851 35854 28
28684 35851 35855 28
28685 35856 35857 28
28686 35856 35858 28
28687 35856 35859 28
28688 35856 35860 28
28689 35861 35862 28
28690 35861 35863 28
28691 35861 35864 28
28692 35861 35865 28
28693 35866 35867 28
28694 35866 35868 28
28695 35866 35869 28
28696 35866 35870 28
28697 35871 35872 28
28698 35871 35873 28
28699 35871 35874 28
28700 35871 35875 28
28701 35876 35877 28
28702 35876 35878 28
28703 35876 35879 28
28704 35876 35880 28
28705 35881 35882 28
28706 35881 35883 28
28707 35881 35884 28
28708 35881 35885 28
28709 35886 35887 28
28710 35886 35888 28
28711 35886 35889 28
28712 35886 35890 28
28713 35891 35892 28
28714 35891 35893 28
28715 35891 35894 28
28716 35891 35895 28
28717 35896 35897 28
28718 35896 35898 28
28719 35896 35899 28
28720 35896 35900 28
28721 35901 35902 28
28722 35901 35903 28
28723 35901 35904 28
28724 35901 35905 28
28725 35906 35907 28
28726 35906 35908 28
28727 35906 35909 28
28728 35906 35910 28
28729 35911 35912 28
28730 35911 35913 28
28731 35911 35914 28
28732 35911 35915 28
28733 35916 35917 28
28734 35916 35918 28
28735 35916 35919 28
28736 35916 35920 28
28737 35921 35922 28
28738 35921 35923 28
28739 35921 35924 28
28740 35921 35925 28
28741 35926 35927 28
28742 35926 35928 28
28743 35926 35929 28
28744 35926 35930 28
28745 35931 35932 28
28746 35931 35933 28
28747 35931 35934 28
28748 35931 35935 28
28749 35936 35937 28
28750 35936 35938 28
28751 35936 35939 28
28752 35936 35940 28
28753 35941 35942 28
28754 35941 35943 28
28755 35941 35944 28
28756 35941 35945 28
28757 35946 35947 28
28758 35946 35948 28
28759 35946 35949 28
28760 35946 35950 28
28761 35951 35952 28
28762 35951 35953 28
28763 35951 35954 28
28764 35951 35955 28
28765 35956 35957 28
28766 35956 35958 28
28767 35956 35959 28
28768 35956 35960 28
28769 35961 35962 28
28770 35961 35963 28
28771 35961 35964 28
28772 35961 35965 28
28773 35966 35967 28
28774 35966 35968 28
28775 35966 35969 28
28776 35966 35970 28
28777 35971 35972 28
28778 35971 35973 28
28779 35971 35974 28
28780 35971 35975 28
28781 35976 35977 28
28782 35976 35978 28
28783 35976 35979 28
28784 35976 35980 28
28785 35981 35982 28
28786 35981 35983 28
28787 35981 35984 28
28788 35981 35985 28
28789 35986 35987 28
28790 35986 35988 28
28791 35986 35989 28
28792 35986 35990 28
28793 35991 35992 28
28794 35991 35993 28
28795 35991 35994 28
28796 35991 35995 28
28797 35996 35997 28
28798 35996 35998 28
28799 35996 35999 28
28800 35996 36000 28
28801 36001 36002 28
28802 36001 36003 28
28803 36001 36004 28
28804 36001 36005 28
28805 36006 36007 28
28806 36006 36008 28
28807 36006 36009 28
28808 36006 36010 28
28809 36011 36012 28
28810 36011 36013 28
28811 36011 36014 28
28812 36011 36015 28
28813 36016 36017 28
28814 36016 36018 28
28815 36016 36019 28
28816 36016 36020 28
28817 36021 36022 28
28818 36021 36023 28
28819 36021 36024 28
28820 36021 36025 28
28821 36026 36027 28
28822 36026 36028 28
28823 36026 36029 28
28824 36026 36030 28
28825 36031 36032 28
28826 36031 36033 28
28827 36031 36034 28
28828 36031 36035 28
28829 36036 36037 28
28830 36036 36038 28
28831 36036 36039 28
28832 36036 36040 28
28833 36041 36042 28
28834 36041 36043 28
28835 36041 36044 28
28836 36041 36045 28
28837 36046 36047 28
28838 36046 36048 28
28839 36046 36049 28
28840 36046 36050 28
28841 36051 36052 28
28842 36051 36053 28
28843 36051 36054 28
28844 36051 36055 28
28845 36056 36057 28
28846 36056 36058 28
28847 36056 36059 28
28848 36056 36060 28
28849 36061 36062 28
28850 36061 36063 28
28851 36061 36064 28
28852 36061 36065 28
28853 36066 36067 28
28854 36066 36068 28
28855 36066 36069 28
28856 36066 36070 28
28857 36071 36072 28
28858 36071 36073 28
28859 36071 36074 28
28860 36071 36075 28
28861 36076 36077 28
28862 36076 36078 28
28863 36076 36079 28
28864 36076 36080 28
28865 36081 36082 28
28866 36081 36083 28
28867 36081 36084 28
28868 36081 36085 28
28869 36086 36087 28
28870 36086 36088 28
28871 36086 36089 28
28872 36086 36090 28
28873 36091 36092 28
28874 36091 36093 28
28875 36091 36094 28
28876 36091 36095 28
28877 36096 36097 28
28878 36096 36098 28
28879 36096 36099 28
28880 36096 36100 28
28881 36101 36102 28
28882 36101 36103 28
28883 36101 36104 28
28884 36101 36105 28
28885 36106 36107 28
28886 36106 36108 28
28887 36106 36109 28
28888 36106 36110 28
28889 36111 36112 28
28890 36111 36113 28
28891 36111 36114 28
28892 36111 36115 28
28893 36116 36117 28
28894 36116 36118 28
28895 36116 36119 28
28896 36116 36120 28
28897 36121 36122 28
28898 36121 36123 28
28899 36121 36124 28
28900 36121 36125 28
28901 36126 36127 28
28902 36126 36128 28
28903 36126 36129 28
28904 36126 36130 28
28905 36131 36132 28
28906 36131 36133 28
28907 36131 36134 28
28908 36131 36135 28
28909 36136 36137 28
28910 36136 36138 28
28911 36136 36139 28
28912 36136 36140 28
28913 36141 36142 28
28914 36141 36143 28
28915 36141 36144 28
28916 36141 36145 28
28917 36146 36147 28
28918 36146 36148 28
28919 36146 36149 28
28920 36146 36150 28
28921 36151 36152 28
28922 36151 36153 28
28923 36151 36154 28
28924 36151 36155 28
28925 36156 36157 28
28926 36156 36158 28
28927 36156 36159 28
28928 36156 36160 28
28929 36161 36162 28
28930 36161 36163 28
28931 36161 36164 28
28932 36161 36165 28
28933 36166 36167 28
28934 36166 36168 28
28935 36166 36169 28
28936 36166 36170 28
28937 36171 36172 28
28938 36171 36173 28
28939 36171 36174 28
28940 36171 36175 28
28941 36176 36177 28
28942 36176 36178 28
28943 36176 36179 28
28944 36176 36180 28
28945 36181 36182 28
28946 36181 36183 28
28947 36181 36184 28
28948 36181 36185 28
28949 36186 36187 28
28950 36186 36188 28
28951 36186 36189 28
28952 36186 36190 28
28953 36191 36192 28
28954 36191 36193 28
28955 36191 36194 28
28956 36191 36195 28
28957 36196 36197 28
28958 36196 36198 28
28959 36196 36199 28
28960 36196 36200 28
28961 36201 36202 28
28962 36201 36203 28
28963 36201 36204 28
28964 36201 36205 28
28965 36206 36207 28
28966 36206 36208 28
28967 36206 36209 28
28968 36206 36210 28
28969 36211 36212 28
28970 36211 36213 28
28971 36211 36214 28
28972 36211 36215 28
28973 36216 36217 28
28974 36216 36218 28
28975 36216 36219 28
28976 36216 36220 28
28977 36221 36222 28
28978 36221 36223 28
28979 36221 36224 28
28980 36221 36225 28
28981 36226 36227 28
28982 36226 36228 28
28983 36226 36229 28
28984 36226 36230 28
28985 36231 36232 28
28986 36231 36233 28
28987 36231 36234 28
28988 36231 36235 28
28989 36236 36237 28
28990 36236 36238 28
28991 36236 36239 28
28992 36236 36240 28
28993 36241 36242 28
28994 36241 36243 28
28995 36241 36244 28
28996 36241 36245 28
28997 36246 36247 28
28998 36246 36248 28
28999 36246 36249 28
29000 36246 36250 28
29001 36251 36252 28
29002 36251 36253 28
29003 36251 36254 28
29004 36251 36255 28
29005 36256 36257 28
29006 36256 36258 28
29007 36256 36259 28
29008 36256 36260 28
29009 36261 36262 28
29010 36261 36263 28
29011 36261 36264 28
29012 36261 36265 28
29013 36266 36267 28
29014 36266 36268 28
29015 36266 36269 28
29016 36266 36270 28
29017 36271 36272 28
29018 36271 36273 28
29019 36271 36274 28
29020 36271 36275 28
29021 36276 36277 28
29022 36276 36278 28
29023 36276 36279 28
29024 36276 36280 28
29025 36281 36282 28
29026 36281 36283 28
29027 36281 36284 28
29028 36281 36285 28
29029 36286 36287 28
29030 36286 36288 28
29031 36286 36289 28
29032 36286 36290 28
29033 36291 36292 28
29034 36291 36293 28
29035 36291 36294 28
29036 36291 36295 28
29037 36296 36297 28
29038 36296 36298 28
29039 36296 36299 28
29040 36296 36300 28
29041 36301 36302 28
29042 36301 36303 28
29043 36301 36304 28
29044 36301 36305 28
29045 36306 36307 28
29046 36306 36308 28
29047 36306 36309 28
29048 36306 36310 28
29049 36311 36312 28
29050 36311 36313 28
29051 36311 36314 28
29052 36311 36315 28
29053 36316 36317 28
29054 36316 36318 28
29055 36316 36319 28
29056 36316 36320 28
29057 36321 36322 28
29058 36321 36323 28
29059 36321 36324 28
29060 36321 36325 28
29061 36326 36327 28
29062 36326 36328 28
29063 36326 36329 28
29064 36326 36330 28
29065 36331 36332 28
29066 36331 36333 28
29067 36331 36334 28
29068 36331 36335 28
29069 36336 36337 28
29070 36336 36338 28
29071 36336 36339 28
29072 36336 36340 28
29073 36341 36342 28
29074 36341 36343 28
29075 36341 36344 28
29076 36341 36345 28
29077 36346 36347 28
29078 36346 36348 28
29079 36346 36349 28
29080 36346 36350 28
29081 36351 36352 28
29082 36351 36353 28
29083 36351 36354 28
29084 36351 36355 28
29085 36356 36357 28
29086 36356 36358 28
29087 36356 36359 28
29088 36356 36360 28
29089 36361 36362 28
29090 36361 36363 28
29091 36361 36364 28
29092 36361 36365 28
29093 36366 36367 28
29094 36366 36368 28
29095 36366 36369 28
29096 36366 36370 28
29097 36371 36372 28
29098 36371 36373 28
29099 36371 36374 28
29100 36371 36375 28
29101 36376 36377 28
29102 36376 36378 28
29103 36376 36379 28
29104 36376 36380 28
29105 36381 36382 28
29106 36381 36383 28
29107 36381 36384 28
29108 36381 36385 28
29109 36386 36387 28
29110 36386 36388 28
29111 36386 36389 28
29112 36386 36390 28
29113 36391 36392 28
29114 36391 36393 28
29115 36391 36394 28
29116 36391 36395 28
29117 36396 36397 28
29118 36396 36398 28
29119 36396 36399 28
29120 36396 36400 28
29121 36401 36402 28
29122 36401 36403 28
29123 36401 36404 28
29124 36401 36405 28
29125 36406 36407 28
29126 36406 36408 28
29127 36406 36409 28
29128 36406 36410 28
29129 36411 36412 28
29130 36411 36413 28
29131 36411 36414 28
29132 36411 36415 28
29133 36416 36417 28
29134 36416 36418 28
29135 36416 36419 28
29136 36416 36420 28
29137 36421 36422 28
29138 36421 36423 28
29139 36421 36424 28
29140 36421 36425 28
29141 36426 36427 28
29142 36426 36428 28
29143 36426 36429 28
29144 36426 36430 28
29145 36431 36432 28
29146 36431 36433 28
29147 36431 36434 28
29148 36431 36435 28
29149 36436 36437 28
29150 36436 36438 28
29151 36436 36439 28
29152 36436 36440 28
29153 36441 36442 28
29154 36441 36443 28
29155 36441 36444 28
29156 36441 36445 28
29157 36446 36447 28
29158 36446 36448 28
29159 36446 36449 28
29160 36446 36450 28
29161 36451 36452 28
29162 36451 36453 28
29163 36451 36454 28
29164 36451 36455 28
29165 36456 36457 28
29166 36456 36458 28
29167 36456 36459 28
29168 36456 36460 28
29169 36461 36462 28
29170 36461 36463 28
29171 36461 36464 28
29172 36461 36465 28
29173 36466 36467 28
29174 36466 36468 28
29175 36466 36469 28
29176 36466 36470 28
29177 36471 36472 28
29178 36471 36473 28
29179 36471 36474 28
29180 36471 36475 28
29181 36476 36477 28
29182 36476 36478 28
29183 36476 36479 28
29184 36476 36480 28
29185 36481 36482 28
29186 36481 36483 28
29187 36481 36484 28
29188 36481 36485 28
29189 36486 36487 28
29190 36486 36488 28
29191 36486 36489 28
29192 36486 36490 28
29193 36491 36492 28
29194 36491 36493 28
29195 36491 36494 28
29196 36491 36495 28
29197 36496 36497 28
29198 36496 36498 28
29199 36496 36499 28
29200 36496 36500 28
29201 36501 36502 28
29202 36501 36503 28
29203 36501 36504 28
29204 36501 36505 28
29205 36506 36507 28
29206 36506 36508 28
29207 36506 36509 28
29208 36506 36510 28
29209 36511 36512 28
29210 36511 36513 28
29211 36511 36514 28
29212 36511 36515 28
29213 36516 36517 28
29214 36516 36518 28
29215 36516 36519 28
29216 36516 36520 28
29217 36521 36522 28
29218 36521 36523 28
29219 36521 36524 28
29220 36521 36525 28
29221 36526 36527 28
29222 36526 36528 28
29223 36526 36529 28
29224 36526 36530 28
29225 36531 36532 28
29226 36531 36533 28
29227 36531 36534 28
29228 36531 36535 28
29229 36536 36537 28
29230 36536 36538 28
29231 36536 36539 28
29232 36536 36540 28
29233 36541 36542 28
29234 36541 36543 28
29235 36541 36544 28
29236 36541 36545 28
29237 36546 36547 28
29238 36546 36548 28
29239 36546 36549 28
29240 36546 36550 28
29241 36551 36552 28
29242 36551 36553 28
29243 36551 36554 28
29244 36551 36555 28
29245 36556 36557 28
29246 36556 36558 28
29247 36556 36559 28
29248 36556 36560 28
29249 36561 36562 28
29250 36561 36563 28
29251 36561 36564 28
29252 36561 36565 28
29253 36566 36567 28
29254 36566 36568 28
29255 36566 36569 28
29256 36566 36570 28
29257 36571 36572 28
29258 36571 36573 28
29259 36571 36574 28
29260 36571 36575 28
29261 36576 36577 28
29262 36576 36578 28
29263 36576 36579 28
29264 36576 36580 28
29265 36581 36582 28
29266 36581 36583 28
29267 36581 36584 28
29268 36581 36585 28
29269 36586 36587 28
29270 36586 36588 28
29271 36586 36589 28
29272 36586 36590 28
29273 36591 36592 28
29274 36591 36593 28
29275 36591 36594 28
29276 36591 36595 28
29277 36596 36597 28
29278 36596 36598 28
29279 36596 36599 28
29280 36596 36600 28
29281 36601 36602 28
29282 36601 36603 28
29283 36601 36604 28
29284 36601 36605 28
29285 36606 36607 28
29286 36606 36608 28
29287 36606 36609 28
29288 36606 36610 28
29289 36611 36612 28
29290 36611 36613 28
29291 36611 36614 28
29292 36611 36615 28
29293 36616 36617 28
29294 36616 36618 28
29295 36616 36619 28
29296 36616 36620 28
29297 36621 36622 28
29298 36621 36623 28
29299 36621 36624 28
29300 36621 36625 28
29301 36626 36627 28
29302 36626 36628 28
29303 36626 36629 28
29304 36626 36630 28
29305 36631 36632 28
29306 36631 36633 28
29307 36631 36634 28
29308 36631 36635 28
29309 36636 36637 28
29310 36636 36638 28
29311 36636 36639 28
29312 36636 36640 28
29313 36641 36642 28
29314 36641 36643 28
29315 36641 36644 28
29316 36641 36645 28
29317 36646 36647 28
29318 36646 36648 28
29319 36646 36649 28
29320 36646 36650 28
29321 36651 36652 28
29322 36651 36653 28
29323 36651 36654 28
29324 36651 36655 28
29325 36656 36657 28
29326 36656 36658 28
29327 36656 36659 28
29328 36656 36660 28
29329 36661 36662 28
29330 36661 36663 28
29331 36661 36664 28
29332 36661 36665 28
29333 36666 36667 28
29334 36666 36668 28
29335 36666 36669 28
29336 36666 36670 28
29337 36671 36672 28
29338 36671 36673 28
29339 36671 36674 28
29340 36671 36675 28
29341 36676 36677 28
29342 36676 36678 28
29343 36676 36679 28
29344 36676 36680 28
29345 36681 36682 28
29346 36681 36683 28
29347 36681 36684 28
29348 36681 36685 28
29349 36686 36687 28
29350 36686 36688 28
29351 36686 36689 28
29352 36686 36690 28
29353 36691 36692 28
29354 36691 36693 28
29355 36691 36694 28
29356 36691 36695 28
29357 36696 36697 28
29358 36696 36698 28
29359 36696 36699 28
29360 36696 36700 28
29361 36701 36702 28
29362 36701 36703 28
29363 36701 36704 28
29364 36701 36705 28
29365 36706 36707 28
29366 36706 36708 28
29367 36706 36709 28
29368 36706 36710 28
29369 36711 36712 28
29370 36711 36713 28
29371 36711 36714 28
29372 36711 36715 28
29373 36716 36717 28
29374 36716 36718 28
29375 36716 36719 28
29376 36716 36720 28
29377 36721 36722 28
29378 36721 36723 28
29379 36721 36724 28
29380 36721 36725 28
29381 36726 36727 28
29382 36726 36728 28
29383 36726 36729 28
29384 36726 36730 28
29385 36731 36732 28
29386 36731 36733 28
29387 36731 36734 28
29388 36731 36735 28
29389 36736 36737 28
29390 36736 36738 28
29391 36736 36739 28
29392 36736 36740 28
29393 36741 36742 28
29394 36741 36743 28
29395 36741 36744 28
29396 36741 36745 28
29397 36746 36747 28
29398 36746 36748 28
29399 36746 36749 28
29400 36746 36750 28
29401 36751 36752 28
29402 36751 36753 28
29403 36751 36754 28
29404 36751 36755 28
29405 36756 36757 28
29406 36756 36758 28
29407 36756 36759 28
29408 36756 36760 28
29409 36761 36762 28
29410 36761 36763 28
29411 36761 36764 28
29412 36761 36765 28
29413 36766 36767 28
29414 36766 36768 28
29415 36766 36769 28
29416 36766 36770 28
29417 36771 36772 28
29418 36771 36773 28
29419 36771 36774 28
29420 36771 36775 28
29421 36776 36777 28
29422 36776 36778 28
29423 36776 36779 28
29424 36776 36780 28
29425 36781 36782 28
29426 36781 36783 28
29427 36781 36784 28
29428 36781 36785 28
29429 36786 36787 28
29430 36786 36788 28
29431 36786 36789 28
29432 36786 36790 28
29433 36791 36792 28
29434 36791 36793 28
29435 36791 36794 28
29436 36791 36795 28
29437 36796 36797 28
29438 36796 36798 28
29439 36796 36799 28
29440 36796 36800 28
29441 36801 36802 28
29442 36801 36803 28
29443 36801 36804 28
29444 36801 36805 28
29445 36806 36807 28
29446 36806 36808 28
29447 36806 36809 28
29448 36806 36810 28
29449 36811 36812 28
29450 36811 36813 28
29451 36811 36814 28
29452 36811 36815 28
29453 36816 36817 28
29454 36816 36818 28
29455 36816 36819 28
29456 36816 36820 28
29457 36821 36822 28
29458 36821 36823 28
29459 36821 36824 28
29460 36821 36825 28
29461 36826 36827 28
29462 36826 36828 28
29463 36826 36829 28
29464 36826 36830 28
29465 36831 36832 28
29466 36831 36833 28
29467 36831 36834 28
29468 36831 36835 28
29469 36836 36837 28
29470 36836 36838 28
29471 36836 36839 28
29472 36836 36840 28
29473 36841 36842 28
29474 36841 36843 28
29475 36841 36844 28
29476 36841 36845 28
29477 36846 36847 28
29478 36846 36848 28
29479 36846 36849 28
29480 36846 36850 28
29481 36851 36852 28
29482 36851 36853 28
29483 36851 36854 28
29484 36851 36855 28
29485 36856 36857 28
29486 36856 36858 28
29487 36856 36859 28
29488 36856 36860 28
29489 36861 36862 28
29490 36861 36863 28
29491 36861 36864 28
29492 36861 36865 28
29493 36866 36867 28
29494 36866 36868 28
29495 36866 36869 28
29496 36866 36870 28
29497 36871 36872 28
29498 36871 36873 28
29499 36871 36874 28
29500 36871 36875 28
29501 36876 36877 28
29502 36876 36878 28
29503 36876 36879 28
29504 36876 36880 28
29505 36881 36882 28
29506 36881 36883 28
29507 36881 36884 28
29508 36881 36885 28
29509 36886 36887 28
29510 36886 36888 28
29511 36886 36889 28
29512 36886 36890 28
29513 36891 36892 28
29514 36891 36893 28
29515 36891 36894 28
29516 36891 36895 28
29517 36896 36897 28
29518 36896 36898 28
29519 36896 36899 28
29520 36896 36900 28
29521 36901 36902 28
29522 36901 36903 28
29523 36901 36904 28
29524 36901 36905 28
29525 36906 36907 28
29526 36906 36908 28
29527 36906 36909 28
29528 36906 36910 28
29529 36911 36912 28
29530 36911 36913 28
29531 36911 36914 28
29532 36911 36915 28
29533 36916 36917 28
29534 36916 36918 28
29535 36916 36919 28
29536 36916 36920 28
29537 36921 36922 28
29538 36921 36923 28
29539 36921 36924 28
29540 36921 36925 28
29541 36926 36927 28
29542 36926 36928 28
29543 36926 36929 28
29544 36926 36930 28
29545 36931 36932 28
29546 36931 36933 28
29547 36931 36934 28
29548 36931 36935 28
29549 36936 36937 28
29550 36936 36938 28
29551 36936 36939 28
29552 36936 36940 28
29553 36941 36942 28
29554 36941 36943 28
29555 36941 36944 28
29556 36941 36945 28
29557 36946 36947 28
29558 36946 36948 28
29559 36946 36949 28
29560 36946 36950 28
29561 36951 36952 28
29562 36951 36953 28
29563 36951 36954 28
29564 36951 36955 28
29565 36956 36957 28
29566 36956 36958 28
29567 36956 36959 28
29568 36956 36960 28
29569 36961 36962 28
29570 36961 36963 28
29571 36961 36964 28
29572 36961 36965 28
29573 36966 36967 28
29574 36966 36968 28
29575 36966 36969 28
29576 36966 36970 28
29577 36971 36972 28
29578 36971 36973 28
29579 36971 36974 28
29580 36971 36975 28
29581 36976 36977 28
29582 36976 36978 28
29583 36976 36979 28
29584 36976 36980 28
29585 36981 36982 28
29586 36981 36983 28
29587 36981 36984 28
29588 36981 36985 28
29589 36986 36987 28
29590 36986 36988 28
29591 36986 36989 28
29592 36986 36990 28
29593 36991 36992 28
29594 36991 36993 28
29595 36991 36994 28
29596 36991 36995 28
29597 36996 36997 28
29598 36996 36998 28
29599 36996 36999 28
29600 36996 37000 28
29601 37001 37002 28
29602 37001 37003 28
29603 37001 37004 28
29604 37001 37005 28
29605 37006 37007 28
29606 37006 37008 28
29607 37006 37009 28
29608 37006 37010 28
29609 37011 37012 28
29610 37011 37013 28
29611 37011 37014 28
29612 37011 37015 28
29613 37016 37017 28
29614 37016 37018 28
29615 37016 37019 28
29616 37016 37020 28
29617 37021 37022 28
29618 37021 37023 28
29619 37021 37024 28
29620 37021 37025 28
29621 37026 37027 28
29622 37026 37028 28
29623 37026 37029 28
29624 37026 37030 28
29625 37031 37032 28
29626 37031 37033 28
29627 37031 37034 28
29628 37031 37035 28
29629 37036 37037 28
29630 37036 37038 28
29631 37036 37039 28
29632 37036 37040 28
29633 37041 37042 28
29634 37041 37043 28
29635 37041 37044 28
29636 37041 37045 28
29637 37046 37047 28
29638 37046 37048 28
29639 37046 37049 28
29640 37046 37050 28
29641 37051 37052 28
29642 37051 37053 28
29643 37051 37054 28
29644 37051 37055 28
29645 37056 37057 28
29646 37056 37058 28
29647 37056 37059 28
29648 37056 37060 28
29649 37061 37062 28
29650 37061 37063 28
29651 37061 37064 28
29652 37061 37065 28
29653 37066 37067 28
29654 37066 37068 28
29655 37066 37069 28
29656 37066 37070 28
29657 37071 37072 28
29658 37071 37073 28
29659 37071 37074 28
29660 37071 37075 28
29661 37076 37077 28
29662 37076 37078 28
29663 37076 37079 28
29664 37076 37080 28
29665 37081 37082 28
29666 37081 37083 28
29667 37081 37084 28
29668 37081 37085 28
29669 37086 37087 28
29670 37086 37088 28
29671 37086 37089 28
29672 37086 37090 28
29673 37091 37092 28
29674 37091 37093 28
29675 37091 37094 28
29676 37091 37095 28
29677 37096 37097 28
29678 37096 37098 28
29679 37096 37099 28
29680 37096 37100 28
29681 37101 37102 28
29682 37101 37103 28
29683 37101 37104 28
29684 37101 37105 28
29685 37106 37107 28
29686 37106 37108 28
29687 37106 37109 28
29688 37106 37110 28
29689 37111 37112 28
29690 37111 37113 28
29691 37111 37114 28
29692 37111 37115 28
29693 37116 37117 28
29694 37116 37118 28
29695 37116 37119 28
29696 37116 37120 28
29697 37121 37122 28
29698 37121 37123 28
29699 37121 37124 28
29700 37121 37125 28
29701 37126 37127 28
29702 37126 37128 28
29703 37126 37129 28
29704 37126 37130 28
29705 37131 37132 28
29706 37131 37133 28
29707 37131 37134 28
29708 37131 37135 28
29709 37136 37137 28
29710 37136 37138 28
29711 37136 37139 28
29712 37136 37140 28
29713 37141 37142 28
29714 37141 37143 28
29715 37141 37144 28
29716 37141 37145 28
29717 37146 37147 28
29718 37146 37148 28
29719 37146 37149 28
29720 37146 37150 28
29721 37151 37152 28
29722 37151 37153 28
29723 37151 37154 28
29724 37151 37155 28
29725 37156 37157 28
29726 37156 37158 28
29727 37156 37159 28
29728 37156 37160 28
29729 37161 37162 28
29730 37161 37163 28
29731 37161 37164 28
29732 37161 37165 28
29733 37166 37167 28
29734 37166 37168 28
29735 37166 37169 28
29736 37166 37170 28
29737 37171 37172 28
29738 37171 37173 28
29739 37171 37174 28
29740 37171 37175 28
29741 37176 37177 28
29742 37176 37178 28
29743 37176 37179 28
29744 37176 37180 28
29745 37181 37182 28
29746 37181 37183 28
29747 37181 37184 28
29748 37181 37185 28
29749 37186 37187 28
29750 37186 37188 28
29751 37186 37189 28
29752 37186 37190 28
29753 37191 37192 28
29754 37191 37193 28
29755 37191 37194 28
29756 37191 37195 28
29757 37196 37197 28
29758 37196 37198 28
29759 37196 37199 28
29760 37196 37200 28
29761 37201 37202 28
29762 37201 37203 28
29763 37201 37204 28
29764 37201 37205 28
29765 37206 37207 28
29766 37206 37208 28
29767 37206 37209 28
29768 37206 37210 28
29769 37211 37212 28
29770 37211 37213 28
29771 37211 37214 28
29772 37211 37215 28
29773 37216 37217 28
29774 37216 37218 28
29775 37216 37219 28
29776 37216 37220 28
29777 37221 37222 28
29778 37221 37223 28
29779 37221 37224 28
29780 37221 37225 28
29781 37226 37227 28
29782 37226 37228 28
29783 37226 37229 28
29784 37226 37230 28
29785 37231 37232 28
29786 37231 37233 28
29787 37231 37234 28
29788 37231 37235 28
29789 37236 37237 28
29790 37236 37238 28
29791 37236 37239 28
29792 37236 37240 28
29793 37241 37242 28
29794 37241 37243 28
29795 37241 37244 28
29796 37241 37245 28
29797 37246 37247 28
29798 37246 37248 28
29799 37246 37249 28
29800 37246 37250 28
29801 37251 37252 28
29802 37251 37253 28
29803 37251 37254 28
29804 37251 37255 28
29805 37256 37257 28
29806 37256 37258 28
29807 37256 37259 28
29808 37256 37260 28
29809 37261 37262 28
29810 37261 37263 28
29811 37261 37264 28
29812 37261 37265 28
29813 37266 37267 28
29814 37266 37268 28
29815 37266 37269 28
29816 37266 37270 28
29817 37271 37272 28
29818 37271 37273 28
29819 37271 37274 28
29820 37271 37275 28
29821 37276 37277 28
29822 37276 37278 28
29823 37276 37279 28
29824 37276 37280 28
29825 37281 37282 28
29826 37281 37283 28
29827 37281 37284 28
29828 37281 37285 28
29829 37286 37287 28
29830 37286 37288 28
29831 37286 37289 28
29832 37286 37290 28
29833 37291 37292 28
29834 37291 37293 28
29835 37291 37294 28
29836 37291 37295 28
29837 37296 37297 28
29838 37296 37298 28
29839 37296 37299 28
29840 37296 37300 28
29841 37301 37302 28
29842 37301 37303 28
29843 37301 37304 28
29844 37301 37305 28
29845 37306 37307 28
29846 37306 37308 28
29847 37306 37309 28
29848 37306 37310 28
29849 37311 37312 28
29850 37311 37313 28
29851 37311 37314 28
29852 37311 37315 28
29853 37316 37317 28
29854 37316 37318 28
29855 37316 37319 28
29856 37316 37320 28
29857 37321 37322 28
29858 37321 37323 28
29859 37321 37324 28
29860 37321 37325 28
29861 37326 37327 28
29862 37326 37328 28
29863 37326 37329 28
29864 37326 37330 28
29865 37331 37332 28
29866 37331 37333 28
29867 37331 37334 28
29868 37331 37335 28
29869 37336 37337 28
29870 37336 37338 28
29871 37336 37339 28
29872 37336 37340 28
29873 37341 37342 28
29874 37341 37343 28
29875 37341 37344 28
29876 37341 37345 28
29877 37346 37347 28
29878 37346 37348 28
29879 37346 37349 28
29880 37346 37350 28
29881 37351 37352 28
29882 37351 37353 28
29883 37351 37354 28
29884 37351 37355 28
29885 37356 37357 28
29886 37356 37358 28
29887 37356 37359 28
29888 37356 37360 28
29889 37361 37362 28
29890 37361 37363 28
29891 37361 37364 28
29892 37361 37365 28
29893 37366 37367 28
29894 37366 37368 28
29895 37366 37369 28
29896 37366 37370 28
29897 37371 37372 28
29898 37371 37373 28
29899 37371 37374 28
29900 37371 37375 28
29901 37376 37377 28
29902 37376 37378 28
29903 37376 37379 28
29904 37376 37380 28
29905 37381 37382 28
29906 37381 37383 28
29907 37381 37384 28
29908 37381 37385 28
29909 37386 37387 28
29910 37386 37388 28
29911 37386 37389 28
29912 37386 37390 28
29913 37391 37392 28
29914 37391 37393 28
29915 37391 37394 28
29916 37391 37395 28
29917 37396 37397 28
29918 37396 37398 28
29919 37396 37399 28
29920 37396 37400 28
29921 37401 37402 28
29922 37401 37403 28
29923 37401 37404 28
29924 37401 37405 28
29925 37406 37407 28
29926 37406 37408 28
29927 37406 37409 28
29928 37406 37410 28
29929 37411 37412 28
29930 37411 37413 28
29931 37411 37414 28
29932 37411 37415 28
29933 37416 37417 28
29934 37416 37418 28
29935 37416 37419 28
29936 37416 37420 28
29937 37421 37422 28
29938 37421 37423 28
29939 37421 37424 28
29940 37421 37425 28
29941 37426 37427 28
29942 37426 37428 28
29943 37426 37429 28
29944 37426 37430 28
29945 37431 37432 28
29946 37431 37433 28
29947 37431 37434 28
29948 37431 37435 28
29949 37436 37437 28
29950 37436 37438 28
29951 37436 37439 28
29952 37436 37440 28
29953 37441 37442 28
29954 37441 37443 28
29955 37441 37444 28
29956 37441 37445 28
29957 37446 37447 28
29958 37446 37448 28
29959 37446 37449 28
29960 37446 37450 28
29961 37451 37452 28
29962 37451 37453 28
29963 37451 37454 28
29964 37451 37455 28
29965 37456 37457 28
29966 37456 37458 28
29967 37456 37459 28
29968 37456 37460 28
29969 37461 37462 28
29970 37461 37463 28
29971 37461 37464 28
29972 37461 37465 28
29973 37466 37467 28
29974 37466 37468 28
29975 37466 37469 28
29976 37466 37470 28
29977 37471 37472 28
29978 37471 37473 28
29979 37471 37474 28
29980 37471 37475 28
29981 37476 37477 28
29982 37476 37478 28
29983 37476 37479 28
29984 37476 37480 28
29985 37481 37482 28
29986 37481 37483 28
29987 37481 37484 28
29988 37481 37485 28
29989 37486 37487 28
29990 37486 37488 28
29991 37486 37489 28
29992 37486 37490 28
29993 37491 37492 28
29994 37491 37493 28
29995 37491 37494 28
29996 37491 37495 28
29997 37496 37497 28
29998 37496 37498 28
29999 37496 37499 28
30000 37496 37500 28
@<TRIPOS>CRYSIN
172.79076241493595 172.79076241493595 172.79076241493595 90 90 90 1 1
