@<TRIPOS>MOLECULE
mol
37500 30000
SMALL
USER_CHARGES


@<TRIPOS>ATOM
1 C 123.25189891236698 16.291016572838203 86.44324536512012 C 0.0 **** -0.24
2 H 122.53097131488494 15.484342526864936 86.31222924304402 H 0.0 **** 0.06
3 H 123.15928025551432 16.701540278632592 87.44848409921445 H 0.0 **** 0.06
4 H 123.05701286160036 17.07424357299493 85.71089863103306 H 0.0 **** 0.06
5 H 124.26051292148242 15.9026725968466 86.3007686926047 H 0.0 **** 0.06
6 C 154.41371015679505 111.1840200708289 32.92980455185557 C 0.0 **** -0.24
7 H 153.72115737258792 110.56258693667954 33.497055238124744 H 0.0 **** 0.06
8 H 153.85580394395396 111.80113308023905 32.22466479007369 H 0.0 **** 0.06
9 H 155.10904028345712 110.54653528907534 32.38294529322019 H 0.0 **** 0.06
10 H 154.96966302612515 111.8255620876497 33.61405094483146 H 0.0 **** 0.06
11 C 134.80618327760016 117.99543076426036 83.43580963026432 C 0.0 **** -0.24
12 H 134.63978706524006 117.01976051551017 83.89202307978114 H 0.0 **** 0.06
13 H 134.25851358998136 118.75544278650057 83.99446922452694 H 0.0 **** 0.06
14 H 134.4534758233928 117.9791145277932 82.40458313335854 H 0.0 **** 0.06
15 H 135.87087393348713 118.22775297156969 83.4528990131245 H 0.0 **** 0.06
16 C 5.410619415556823 16.509634171328976 93.49025497200411 C 0.0 **** -0.24
17 H 5.133798597192197 15.678156029006992 94.13828597748693 H 0.0 **** 0.06
18 H 4.510684449453493 16.95529648370492 93.06625022990616 H 0.0 **** 0.06
19 H 6.050808679186218 16.145461085090204 92.68616508042058 H 0.0 **** 0.06
20 H 5.948337789286427 17.259104998647977 94.07150388893747 H 0.0 **** 0.06
21 C 58.45781428666072 0.05207612352721114 99.41375043003393 C 0.0 **** -0.24
22 H 58.95901092874482 0.42885343503173345 98.5223382753442 H 0.0 **** 0.06
23 H 59.189935424704515 -0.0930287898165787 100.20881966736326 H 0.0 **** 0.06
24 H 57.97602593691363 -0.8979805150111559 99.18529432956237 H 0.0 **** 0.06
25 H 57.70664237087854 0.771712856558807 99.73910036149164 H 0.0 **** 0.06
26 C 127.12302328344549 84.6676941403376 106.35091822868088 C 0.0 **** -0.24
27 H 127.40175974218886 84.71150031947197 105.29722144350183 H 0.0 **** 0.06
28 H 127.03448666159403 83.62581442237777 106.65952767536265 H 0.0 **** 0.06
29 H 126.16864039710214 85.17256530706149 106.49492940269764 H 0.0 **** 0.06
30 H 127.88934477495951 85.16064552189228 106.94833862887299 H 0.0 **** 0.06
31 C 15.960415817453274 160.34965626738602 109.42678856052169 C 0.0 **** -0.24
32 H 15.688117649870001 161.39662749167815 109.2906935903296 H 0.0 **** 0.06
33 H 16.226164956003785 159.9153133238379 108.46321425197837 H 0.0 **** 0.06
34 H 15.11609064617442 159.8067994366699 109.85087970894037 H 0.0 **** 0.06
35 H 16.812923620581806 160.28217202331 110.10341564383452 H 0.0 **** 0.06
36 C 141.1823098004645 52.39724024694041 98.10079740144738 C 0.0 **** -0.24
37 H 142.11029073102682 52.93263833213605 97.89946149843371 H 0.0 **** 0.06
38 H 140.739075428437 52.0720248779035 97.15960023281107 H 0.0 **** 0.06
39 H 140.48784742235833 53.05741650366535 98.62125700422155 H 0.0 **** 0.06
40 H 141.39295417439274 51.52777332201403 98.7240293727138 H 0.0 **** 0.06
41 C 151.1301731788336 21.73927946498015 143.96973521321465 C 0.0 **** -0.24
42 H 150.21713497019726 21.59402278435075 143.39393096914864 H 0.0 **** 0.06
43 H 151.99160215378836 21.705319797600012 143.30249333222545 H 0.0 **** 0.06
44 H 151.21759953630368 20.950687158880967 144.71764676316639 H 0.0 **** 0.06
45 H 151.09443551920072 22.708542152487937 144.4674927149167 H 0.0 **** 0.06
46 C 67.7669743785698 161.072644848389 66.9372276973139 C 0.0 **** -0.24
47 H 68.34651701344278 160.72895987685519 66.08012627624602 H 0.0 **** 0.06
48 H 67.96077699993715 160.42227473888292 67.79026938685914 H 0.0 **** 0.06
49 H 66.7055486823582 161.04449263261532 66.69170012663146 H 0.0 **** 0.06
50 H 68.05568782825436 162.09358924359748 67.1848138600139 H 0.0 **** 0.06
51 C 151.9477674508664 63.28797000171309 13.441705500826743 C 0.0 **** -0.24
52 H 152.23643506658175 62.41075486512581 14.020764624729736 H 0.0 **** 0.06
53 H 150.86344767984377 63.39435407295581 13.461119402931445 H 0.0 **** 0.06
54 H 152.28384841118793 63.16828133882612 12.410908663533974 H 0.0 **** 0.06
55 H 152.40945764905987 64.17604155365697 13.873310569981243 H 0.0 **** 0.06
56 C 32.61880028775164 22.84933267181625 35.23527074829116 C 0.0 **** -0.24
57 H 33.65003064608183 23.0724051838421 35.51117742663405 H 0.0 **** 0.06
58 H 31.970828513343605 23.006416572171048 36.09754105523609 H 0.0 **** 0.06
59 H 32.54740686089083 21.811940233057193 34.90954426693838 H 0.0 **** 0.06
60 H 32.31092532770698 23.507955346608476 34.42321531040682 H 0.0 **** 0.06
61 C 37.033234304658265 140.71943887678626 112.1973214521031 C 0.0 **** -0.24
62 H 37.77586844747621 140.6102971878393 111.40685356393129 H 0.0 **** 0.06
63 H 36.985636949149836 139.8003483690339 112.7800365963775 H 0.0 **** 0.06
64 H 36.05844403130476 140.92037553748497 111.75347776139861 H 0.0 **** 0.06
65 H 37.31510272058985 141.54854045740382 112.84685254494809 H 0.0 **** 0.06
66 C 46.100238148364554 24.380505808837768 129.85787374470064 C 0.0 **** -0.24
67 H 45.31028125246192 24.42181512797231 129.10755346822683 H 0.0 **** 0.06
68 H 45.67541461914962 24.57836393191164 130.84281792455647 H 0.0 **** 0.06
69 H 46.857081807918576 25.131254670391428 129.6301443358572 H 0.0 **** 0.06
70 H 46.555362957216204 23.390352779400132 129.8507866317703 H 0.0 **** 0.06
71 C 13.235070524536354 87.78291471881359 95.98653681022277 C 0.0 **** -0.24
72 H 13.672839727057863 88.71337995793472 95.62491072931385 H 0.0 **** 0.06
73 H 13.298103411880987 87.75126608676267 97.07422337957024 H 0.0 **** 0.06
74 H 13.778899791257146 86.93743293067627 95.56557229699143 H 0.0 **** 0.06
75 H 12.189935493683606 87.73084895709333 95.68180943559283 H 0.0 **** 0.06
76 C 42.02387831167887 128.36948483404467 153.61265874368178 C 0.0 **** -0.24
77 H 42.28199401817767 129.39907090333259 153.86312970660867 H 0.0 **** 0.06
78 H 42.69652994228966 127.68877348957619 154.1341802643541 H 0.0 **** 0.06
79 H 42.12011094422597 128.2228330791778 152.53637233614154 H 0.0 **** 0.06
80 H 40.996291886586576 128.16929164675025 153.91622040859588 H 0.0 **** 0.06
81 C 148.79310434256536 69.62017361041228 141.61720306502116 C 0.0 **** -0.24
82 H 149.70645192222798 70.17411076245321 141.8382793894645 H 0.0 **** 0.06
83 H 147.93934263989823 70.29615959561727 141.6576844279631 H 0.0 **** 0.06
84 H 148.66495608710161 68.8256827117915 142.352297677646 H 0.0 **** 0.06
85 H 148.86590479976024 69.18455559253425 140.62061945284637 H 0.0 **** 0.06
86 C 0.41691522152339644 67.16503563935277 79.9375402913551 C 0.0 **** -0.24
87 H -0.002782275872448281 66.38129567396187 79.30745497006899 H 0.0 **** 0.06
88 H -0.3263965241657729 67.94902083083109 80.08488935632252 H 0.0 **** 0.06
89 H 1.2989044296975294 67.58537322345857 79.45367230676578 H 0.0 **** 0.06
90 H 0.6986118065610185 66.74395954619615 80.90262827292398 H 0.0 **** 0.06
91 C 94.74340083004277 48.71824791163735 134.14765056938654 C 0.0 **** -0.24
92 H 95.65307548404877 48.17543098101335 133.89047812638432 H 0.0 **** 0.06
93 H 93.87966908875846 48.19538851209259 133.73466698656551 H 0.0 **** 0.06
94 H 94.79140412765159 49.72469756840624 133.7327438252757 H 0.0 **** 0.06
95 H 94.6482651424598 48.775782222223484 135.23140138160346 H 0.0 **** 0.06
96 C 4.90413613344343 54.68671030755736 153.2579999380272 C 0.0 **** -0.24
97 H 5.665221269559595 54.96486637109457 153.9881098773397 H 0.0 **** 0.06
98 H 5.289966579185027 54.85059627159116 152.2517643205831 H 0.0 **** 0.06
99 H 4.01402676130062 55.297152950903325 153.41094093144108 H 0.0 **** 0.06
100 H 4.649424877640236 53.63481873787826 153.38368656819026 H 0.0 **** 0.06
101 C 115.57639719536294 125.25779935657411 24.167563482561206 C 0.0 **** -0.24
102 H 114.81220277287667 125.42364948356311 23.408973711083718 H 0.0 **** 0.06
103 H 115.36740521164992 124.32860051289097 24.697186650537333 H 0.0 **** 0.06
104 H 115.57235113597648 126.08857758731418 24.873919659144917 H 0.0 **** 0.06
105 H 116.55350668354541 125.19243392979871 23.68932269199962 H 0.0 **** 0.06
106 C 154.8037381235248 14.122102168628913 145.8179501790858 C 0.0 **** -0.24
107 H 154.67647600756078 13.385949186656745 146.61244626734876 H 0.0 **** 0.06
108 H 154.62815107681428 15.121053448297687 146.21718743494776 H 0.0 **** 0.06
109 H 154.09285188408978 13.919113434182009 145.01825891188207 H 0.0 **** 0.06
110 H 155.81927384043348 14.060378665614508 145.42535584966416 H 0.0 **** 0.06
111 C 108.24685450863913 68.09340749667393 144.41243720068084 C 0.0 **** -0.24
112 H 108.27914871932921 68.90278189808384 143.68287018722054 H 0.0 **** 0.06
113 H 107.35638420494374 68.19987634397819 145.0320458523987 H 0.0 **** 0.06
114 H 109.13539891349163 68.13607460804894 145.04212776457976 H 0.0 **** 0.06
115 H 108.21476988121887 67.13602238873176 143.89181718133628 H 0.0 **** 0.06
116 C 142.06376434813183 93.77297742496005 22.031539658950607 C 0.0 **** -0.24
117 H 141.1154720152668 93.78263405500581 22.5687642419675 H 0.0 **** 0.06
118 H 141.93106501533663 93.27664730643104 21.069143577030815 H 0.0 **** 0.06
119 H 142.80762630616312 93.23414515125633 22.618255108032372 H 0.0 **** 0.06
120 H 142.40044066759242 94.79637123832505 21.868840593009963 H 0.0 **** 0.06
121 C 152.2679351633436 160.66617683717953 15.954423949359153 C 0.0 **** -0.24
122 H 151.53151648279226 161.3645033538034 16.352288831012743 H 0.0 **** 0.06
123 H 153.19858329970896 161.19679441883216 15.750971466085332 H 0.0 **** 0.06
124 H 151.89037930768475 160.22766968788756 15.030245970219283 H 0.0 **** 0.06
125 H 152.4513615261766 159.8763144295201 16.68290113187851 H 0.0 **** 0.06
126 C 63.26237474555077 120.68488033994993 6.643353227379492 C 0.0 **** -0.24
127 H 62.93755313413422 120.63342105186163 7.682798624441887 H 0.0 **** 0.06
128 H 62.53602416803682 120.17421241810248 6.010503331198294 H 0.0 **** 0.06
129 H 64.23491682617372 120.20378079032699 6.541810301981002 H 0.0 **** 0.06
130 H 63.339103360654434 121.72922917344417 6.338654805224365 H 0.0 **** 0.06
131 C 59.08271963122226 121.52898019003419 149.3804175051094 C 0.0 **** -0.24
132 H 59.83450696806716 122.31824511153599 149.39516697823302 H 0.0 **** 0.06
133 H 58.11321500340512 121.95615399777355 149.12339575148098 H 0.0 **** 0.06
134 H 59.02575581406312 121.06319582670275 150.3643839247603 H 0.0 **** 0.06
135 H 59.3580908478194 120.77904955081289 148.63872377292813 H 0.0 **** 0.06
136 C 110.24813867733613 158.5273016364788 49.83155460032478 C 0.0 **** -0.24
137 H 110.65534214718568 159.43764430847853 49.39359643270936 H 0.0 **** 0.06
138 H 111.04138490479735 157.98654255015828 50.34942711542254 H 0.0 **** 0.06
139 H 109.83349888676923 157.89849297317318 49.044132005674896 H 0.0 **** 0.06
140 H 109.4625619000413 158.78597726877916 50.54121782113344 H 0.0 **** 0.06
141 C 63.32568576339882 112.11818390518738 139.39646286697257 C 0.0 **** -0.24
142 H 64.21525787574672 111.89616798069369 139.98590263582548 H 0.0 **** 0.06
143 H 62.60494585432605 112.65425423896784 140.01464363604947 H 0.0 **** 0.06
144 H 62.88214545137569 111.18820290752637 139.04336070565387 H 0.0 **** 0.06
145 H 63.60208377845147 112.73636026933025 138.54165645023784 H 0.0 **** 0.06
146 C 142.36029093190265 86.36200968032188 73.11786064156487 C 0.0 **** -0.24
147 H 141.67015067961083 85.81745522970556 73.76192331300071 H 0.0 **** 0.06
148 H 141.956168833506 87.35358060638882 72.90983820205359 H 0.0 **** 0.06
149 H 142.48979642471258 85.81885481338466 72.18217001441872 H 0.0 **** 0.06
150 H 143.32319196757152 86.4594321202882 73.6184635726167 H 0.0 **** 0.06
151 C 98.46633362805775 93.54614984735053 89.83698263000635 C 0.0 **** -0.24
152 H 98.50957186606149 93.10092536138097 90.830438938062 H 0.0 **** 0.06
153 H 98.937013475485 94.5299573052402 89.85901163925203 H 0.0 **** 0.06
154 H 97.4255361389445 93.6483062867089 89.52953262099287 H 0.0 **** 0.06
155 H 98.99369901163675 92.90707058234418 89.12885884327366 H 0.0 **** 0.06
156 C 10.061860095122029 155.65041635297766 104.877211200386 C 0.0 **** -0.24
157 H 10.971475575374939 155.60635316099183 104.27906745562473 H 0.0 **** 0.06
158 H 9.721942012187583 156.68424254564152 104.94539465112064 H 0.0 **** 0.06
159 H 10.2651346864086 155.26707461436547 105.87700587960751 H 0.0 **** 0.06
160 H 9.288480116693847 155.04390458893033 104.40602573634214 H 0.0 **** 0.06
161 C 119.3700533062154 86.3829482034115 111.68332848661487 C 0.0 **** -0.24
162 H 118.54490933395704 87.0937843699754 111.7026721588293 H 0.0 **** 0.06
163 H 119.04882875804512 85.46577493361993 111.18877225607184 H 0.0 **** 0.06
164 H 119.67811330259019 86.15735267113143 112.70461325195996 H 0.0 **** 0.06
165 H 120.20970878520635 86.81450190901982 111.13827716895034 H 0.0 **** 0.06
166 C 88.22387095111868 46.54864493710582 44.07614137505553 C 0.0 **** -0.24
167 H 87.97059480006793 45.72560745430876 43.406988638063154 H 0.0 **** 0.06
168 H 87.83106653555542 46.339264003403386 45.07164989030622 H 0.0 **** 0.06
169 H 87.78557662142917 47.47154346660386 43.69881103706001 H 0.0 **** 0.06
170 H 89.30699857502498 46.65463884029964 44.12722626282334 H 0.0 **** 0.06
171 C 18.766088801262327 7.917225754424464 65.78194797436001 C 0.0 **** -0.24
172 H 19.85169414008135 7.947173210837207 65.87465208380073 H 0.0 **** 0.06
173 H 18.3233335659817 8.655487610488592 66.45067145532781 H 0.0 **** 0.06
174 H 18.40567414309413 6.9236244336620985 66.04792267034765 H 0.0 **** 0.06
175 H 18.4830502636448 8.143587462866094 64.75371140880901 H 0.0 **** 0.06
176 C 63.64528044745089 32.282556564814826 16.990864117802545 C 0.0 **** -0.24
177 H 62.699728426048694 32.54248842347684 16.513743907546342 H 0.0 **** 0.06
178 H 64.26464152736526 31.724019851629805 16.2888509716131 H 0.0 **** 0.06
179 H 63.45058969574529 31.66868593009991 17.87024128901146 H 0.0 **** 0.06
180 H 64.16351801268769 33.19276662579739 17.289683919297943 H 0.0 **** 0.06
181 C 3.2907955679035084 119.35896911510497 2.819770056877701 C 0.0 **** -0.24
182 H 3.7544138913560587 119.58101809100842 3.781725982987709 H 0.0 **** 0.06
183 H 2.6142526780039077 118.5111247505665 2.929654192805728 H 0.0 **** 0.06
184 H 4.064387942869402 119.11504574896398 2.091961654156627 H 0.0 **** 0.06
185 H 2.7310790257659434 120.22902024028559 2.4777345872027183 H 0.0 **** 0.06
186 C 0.038107734919151426 89.42473379741824 124.62900496981791 C 0.0 **** -0.24
187 H -0.36000001636304546 89.43021563049228 125.64432022258146 H 0.0 **** 0.06
188 H -0.7869188866032744 89.44797331850418 123.91613198434277 H 0.0 **** 0.06
189 H 0.6261911087738099 88.52088085126258 124.47426127251782 H 0.0 **** 0.06
190 H 0.6708463660920074 90.29972597703534 124.48210245292589 H 0.0 **** 0.06
191 C 59.05404487144132 155.16537340590256 66.22629802910507 C 0.0 **** -0.24
192 H 59.0345534856352 154.08286642857803 66.35054203023913 H 0.0 **** 0.06
193 H 60.07008268204781 155.48475225576237 65.99092975844744 H 0.0 **** 0.06
194 H 58.72610586875521 155.64361932410202 67.14918030995574 H 0.0 **** 0.06
195 H 58.38631421959988 155.4496253424686 65.41234133378657 H 0.0 **** 0.06
196 C 142.87477289422498 93.84488220949692 89.49795694560633 C 0.0 **** -0.24
197 H 142.28578550950905 93.43191430135062 88.67863695777584 H 0.0 **** 0.06
198 H 143.13759998825506 94.87869736919099 89.27079614147897 H 0.0 **** 0.06
199 H 143.78542402065563 93.25712683459817 89.6218926606618 H 0.0 **** 0.06
200 H 142.29215390341326 93.80999872446712 90.41780262285731 H 0.0 **** 0.06
201 C 50.68294264081909 2.4832832317749762 58.43704681802198 C 0.0 **** -0.24
202 H 51.21164562183988 3.426700611981346 58.572684778148385 H 0.0 **** 0.06
203 H 49.6082619572619 2.6654345550468292 58.44405978311504 H 0.0 **** 0.06
204 H 50.94167250032086 1.8020814251796367 59.24766375199087 H 0.0 **** 0.06
205 H 50.971169872833386 2.0398766345117565 57.483434455964016 H 0.0 **** 0.06
206 C 116.71599757679002 73.18765143302433 49.26859633875719 C 0.0 **** -0.24
207 H 115.89684168873845 72.50132787307871 49.05214199625681 H 0.0 **** 0.06
208 H 117.44605339758374 73.14800299786135 48.46088827198781 H 0.0 **** 0.06
209 H 117.1931891278283 72.89867913454528 50.20531193425927 H 0.0 **** 0.06
210 H 116.32500410857216 74.20117023364314 49.35763903737654 H 0.0 **** 0.06
211 C 129.34897808394746 7.256227169483623 10.516077726498231 C 0.0 **** -0.24
212 H 130.3835095556308 7.586310957857506 10.421029386358569 H 0.0 **** 0.06
213 H 129.20031796441884 6.806642305186415 11.497438236300567 H 0.0 **** 0.06
214 H 129.12973827182824 6.521176528829471 9.741768156047627 H 0.0 **** 0.06
215 H 128.6824471138879 8.111380750351657 10.403282867710239 H 0.0 **** 0.06
216 C 99.09069133472497 18.71327989341861 28.484633490502794 C 0.0 **** -0.24
217 H 99.14538219221038 18.696760202673048 29.572959661388403 H 0.0 **** 0.06
218 H 99.55587568318026 17.812902333561034 28.083182831404592 H 0.0 **** 0.06
219 H 99.61365019540676 19.592870685564414 28.107871025669 H 0.0 **** 0.06
220 H 98.0457849098035 18.75188079426549 28.174347437594882 H 0.0 **** 0.06
221 C 73.54255987680958 48.936817376444594 67.19993726530981 C 0.0 **** -0.24
222 H 73.56749868599437 48.0564622365807 67.84200247474152 H 0.0 **** 0.06
223 H 72.51740169741925 49.29984627902128 67.1217733249925 H 0.0 **** 0.06
224 H 73.91168486917485 48.67365741084386 66.2084543144809 H 0.0 **** 0.06
225 H 74.17312201670529 49.71602950194898 67.62721315305562 H 0.0 **** 0.06
226 C 160.72522811014926 81.37187082646935 30.660242355007654 C 0.0 **** -0.24
227 H 161.1735854186924 81.6414634205218 31.615974735771573 H 0.0 **** 0.06
228 H 159.67004091092653 81.1408817623398 30.806334391957165 H 0.0 **** 0.06
229 H 161.23616605736942 80.49912425751205 30.253658175601913 H 0.0 **** 0.06
230 H 160.82250329991749 82.20579174757322 29.965195387582924 H 0.0 **** 0.06
231 C 44.84592210320456 89.6799873200027 98.21290783067712 C 0.0 **** -0.24
232 H 45.70132003734393 89.58335956977993 98.88166362566997 H 0.0 **** 0.06
233 H 45.01226317093747 89.0741739305159 97.32199501151541 H 0.0 **** 0.06
234 H 44.72619732327054 90.72437055064832 97.9247993445831 H 0.0 **** 0.06
235 H 43.94530050643003 89.3378388158965 98.72330768794171 H 0.0 **** 0.06
236 C 84.1986645200235 129.7591937996432 135.11058187112513 C 0.0 **** -0.24
237 H 84.16889337102698 129.19601452427926 136.04203963453563 H 0.0 **** 0.06
238 H 84.30620151636832 129.0700458400071 134.27210659829873 H 0.0 **** 0.06
239 H 85.04490295008344 130.44626284336258 135.12750864447733 H 0.0 **** 0.06
240 H 83.27395057375057 130.32592125399188 134.99884563778 H 0.0 **** 0.06
241 C 65.6608363128226 97.33634242879671 94.60380497401319 C 0.0 **** -0.24
242 H 64.77012073753197 97.53897993208767 94.00847927774524 H 0.0 **** 0.06
243 H 66.13927855243938 98.27902591464834 94.87381015169618 H 0.0 **** 0.06
244 H 66.35452840957204 96.72920569849228 94.02395752898967 H 0.0 **** 0.06
245 H 65.37726253526426 96.80112248704924 95.5097273583702 H 0.0 **** 0.06
246 C 127.81755812341146 95.64158889774933 6.217219171572992 C 0.0 **** -0.24
247 H 128.71714978443515 95.38332328034647 5.658470952682123 H 0.0 **** 0.06
248 H 127.27491854710775 94.7313825787237 6.472706169483878 H 0.0 **** 0.06
249 H 127.18387097855066 96.2852852725581 5.608189289905646 H 0.0 **** 0.06
250 H 128.0965784171874 96.16672790087023 7.131419695370454 H 0.0 **** 0.06
251 C 70.4331197091422 66.12721450254321 134.3022312976762 C 0.0 **** -0.24
252 H 69.9265257237187 65.19242376796336 134.06436023860095 H 0.0 **** 0.06
253 H 69.93167048356426 66.60815496559599 135.14194422133068 H 0.0 **** 0.06
254 H 70.40314994819155 66.78724126195522 133.4341371742541 H 0.0 **** 0.06
255 H 71.47019387999791 65.92185864218527 134.56637514383556 H 0.0 **** 0.06
256 C 159.64061626532907 25.4795220756331 82.1773865098989 C 0.0 **** -0.24
257 H 158.78516347619126 24.924578734319965 82.56056691613617 H 0.0 **** 0.06
258 H 159.51378948529901 25.649561002029884 81.10816876267087 H 0.0 **** 0.06
259 H 160.55168546092187 24.90666006470238 82.34928148664953 H 0.0 **** 0.06
260 H 159.7121731336244 26.438216863040736 82.69166347132392 H 0.0 **** 0.06
261 C 61.33365052035515 23.102835925387126 2.5191806885773644 C 0.0 **** -0.24
262 H 61.43245868446945 23.759254620583228 1.6549166756278169 H 0.0 **** 0.06
263 H 60.42747877415064 22.505949557343044 2.4203259543027116 H 0.0 **** 0.06
264 H 61.2768895079397 23.702599585449377 3.426556873049151 H 0.0 **** 0.06
265 H 62.19957219700842 22.44244901201639 2.573666049295298 H 0.0 **** 0.06
266 C 54.46565130514273 0.3722886706755162 104.87558764894808 C 0.0 **** -0.24
267 H 53.61536429005548 1.0490291932784146 104.96308124073016 H 0.0 **** 0.06
268 H 55.38798792108466 0.9229373500076576 105.06134572949716 H 0.0 **** 0.06
269 H 54.49000385879654 -0.0510068938986592 103.87194844947763 H 0.0 **** 0.06
270 H 54.36738164130958 -0.4311825908086462 105.60632898099135 H 0.0 **** 0.06
271 C 48.72963374690977 132.72715063084843 114.1868362954784 C 0.0 **** -0.24
272 H 48.3822081486596 133.62210108915465 113.6709099651986 H 0.0 **** 0.06
273 H 49.78933711157913 132.8316067560104 114.42004769698653 H 0.0 **** 0.06
274 H 48.582737636465765 131.85845495666882 113.54500203641513 H 0.0 **** 0.06
275 H 48.164138547366235 132.59729037494498 115.10932062312989 H 0.0 **** 0.06
276 C 113.09177434950874 160.6458362448173 56.244274402126564 C 0.0 **** -0.24
277 H 113.66005632120041 159.75628981820222 56.5140031138248 H 0.0 **** 0.06
278 H 112.10023156432217 160.35328584636375 55.899471543637276 H 0.0 **** 0.06
279 H 113.61055703203397 161.18073804974173 55.448831481630464 H 0.0 **** 0.06
280 H 112.99701456092583 161.29375464483087 57.11616843909269 H 0.0 **** 0.06
281 C 101.27628265144435 13.017728616648725 119.69642161481667 C 0.0 **** -0.24
282 H 100.8343509176334 14.013908425572907 119.66817275416355 H 0.0 **** 0.06
283 H 101.31788880550224 12.668432419694 120.72800435245802 H 0.0 **** 0.06
284 H 102.28484074310651 13.055943337577474 119.28333796404024 H 0.0 **** 0.06
285 H 100.66783478191027 12.333620621261218 119.10417814912884 H 0.0 **** 0.06
286 C 24.573569925761262 22.709116407004558 138.25851980769272 C 0.0 **** -0.24
287 H 25.168476883279396 23.491721827501117 137.78857906963435 H 0.0 **** 0.06
288 H 23.789697150576558 22.387027429207734 137.57206729059453 H 0.0 **** 0.06
289 H 24.120735036494295 23.097070725709827 139.1719189092886 H 0.0 **** 0.06
290 H 25.21376711734564 21.86182569881622 138.50170457513406 H 0.0 **** 0.06
291 C 16.218235147345574 116.13770373322035 87.1965520461247 C 0.0 **** -0.24
292 H 16.107339369857947 115.30410860063967 87.89014785202218 H 0.0 **** 0.06
293 H 16.3987144155249 115.75239915188683 86.19255727646335 H 0.0 **** 0.06
294 H 17.061387822587854 116.75629792356449 87.50595742078319 H 0.0 **** 0.06
295 H 15.307256019512941 116.73566119544046 87.19872873573613 H 0.0 **** 0.06
296 C 139.00651756640463 44.96437312493151 96.11263481837159 C 0.0 **** -0.24
297 H 139.21858759789313 44.26436901668538 96.92053790263117 H 0.0 **** 0.06
298 H 139.34743849304246 45.95989648873466 96.3962225440423 H 0.0 **** 0.06
299 H 137.9326983251262 44.9877712205636 95.92508844166423 H 0.0 **** 0.06
300 H 139.52648373274528 44.645682131569615 95.20914375797247 H 0.0 **** 0.06
301 C 31.45609952697123 29.431125719468582 145.4074730133844 C 0.0 **** -0.24
302 H 31.88025596179665 29.36712901606802 146.41062388113377 H 0.0 **** 0.06
303 H 30.876326972557365 28.531027877571717 145.20134553546163 H 0.0 **** 0.06
304 H 32.261371624514254 29.52075447242845 144.67823341144083 H 0.0 **** 0.06
305 H 30.807555108777706 30.303771491795203 145.34276369855812 H 0.0 **** 0.06
306 C 77.38791520268799 21.379146852452223 149.35742242635433 C 0.0 **** -0.24
307 H 78.10307787269855 22.012994320559265 149.88045355225216 H 0.0 **** 0.06
308 H 77.65136027321968 20.331708498356235 149.5097099635026 H 0.0 **** 0.06
309 H 77.40938968342881 21.60785529403821 148.29242847449814 H 0.0 **** 0.06
310 H 76.38649692165416 21.561698560047425 149.74798250424385 H 0.0 **** 0.06
311 C 3.192086247519711 2.738637607569501 38.32582255227801 C 0.0 **** -0.24
312 H 2.2797859824612203 3.0726254077856083 38.820887453616976 H 0.0 **** 0.06
313 H 3.054857194379622 2.783685565749124 37.24490268524228 H 0.0 **** 0.06
314 H 3.4114012813443253 1.7132189755761544 38.622336266833386 H 0.0 **** 0.06
315 H 4.019682715339144 3.3864567535595143 38.614873235490364 H 0.0 **** 0.06
316 C 63.258825897514754 20.206361665193747 46.24321850042702 C 0.0 **** -0.24
317 H 62.85105524225642 19.23346090905826 46.51609034263414 H 0.0 **** 0.06
318 H 62.93367326006077 20.467278504656157 45.23635952073177 H 0.0 **** 0.06
319 H 64.34795568677616 20.1651942521827 46.27487961634142 H 0.0 **** 0.06
320 H 62.90426600823072 20.959444091974362 46.94705584188914 H 0.0 **** 0.06
321 C 47.240229901402245 4.365890584905031 76.78022466253094 C 0.0 **** -0.24
322 H 47.672816496889624 3.563671894392513 76.18253255076885 H 0.0 **** 0.06
323 H 47.547161401220606 5.329338128183508 76.37042128244786 H 0.0 **** 0.06
324 H 47.58786350662713 4.280801118401087 77.80907036047027 H 0.0 **** 0.06
325 H 46.15347220091759 4.290953624553168 76.75597631260048 H 0.0 **** 0.06
326 C 19.042197175425443 161.51221766794728 101.92519939805175 C 0.0 **** -0.24
327 H 18.048482335099884 161.35343256300078 101.5073729543214 H 0.0 **** 0.06
328 H 19.792801500278514 161.1249325175649 101.23496880803043 H 0.0 **** 0.06
329 H 19.122319960479928 160.9919276390729 102.87924156557142 H 0.0 **** 0.06
330 H 19.205567213190506 162.57978984708262 102.07859360968905 H 0.0 **** 0.06
331 C 47.52688744345687 94.45163419773696 125.05833409977026 C 0.0 **** -0.24
332 H 47.53505600568462 95.17448194381036 124.2425686525454 H 0.0 **** 0.06
333 H 46.98788305415519 94.86917477904505 125.90835702071792 H 0.0 **** 0.06
334 H 48.552154297418156 94.22507113496711 125.35217748516186 H 0.0 **** 0.06
335 H 47.03329049556993 93.53679268960063 124.72753660702426 H 0.0 **** 0.06
336 C 88.98517094258263 114.90065775531036 95.25209533250434 C 0.0 **** -0.24
337 H 88.06102513053285 115.16570880117001 94.73729308524152 H 0.0 **** 0.06
338 H 88.96712326634764 115.30819348195968 96.26365542264051 H 0.0 **** 0.06
339 H 89.83478395453203 115.31298849522511 94.70869316296209 H 0.0 **** 0.06
340 H 89.07552243721662 113.81590993137331 95.29868491162854 H 0.0 **** 0.06
341 C 80.79602785617521 93.57648831985985 10.156001403277173 C 0.0 **** -0.24
342 H 79.74624872374399 93.41743949803747 10.404279730229177 H 0.0 **** 0.06
343 H 81.39100361681722 92.75049197994099 10.547080397850266 H 0.0 **** 0.06
344 H 81.13615258154226 94.51169218772489 10.599753277201245 H 0.0 **** 0.06
345 H 80.90986680164151 93.62564379806999 9.073800293472402 H 0.0 **** 0.06
346 C 117.7426798942335 126.81337845847187 16.74125906408665 C 0.0 **** -0.24
347 H 118.69309105247396 126.33064354525067 16.512594451964958 H 0.0 **** 0.06
348 H 117.06533668552737 126.69980092696454 15.894740792909488 H 0.0 **** 0.06
349 H 117.91138089507382 127.87264056026316 16.932960921373592 H 0.0 **** 0.06
350 H 117.3037152602709 126.34839602361532 17.624803225389655 H 0.0 **** 0.06
351 C 77.21856889039901 115.97045129462478 76.0244110761938 C 0.0 **** -0.24
352 H 77.45682733774329 116.65978400464957 75.21450356488765 H 0.0 **** 0.06
353 H 76.14056658850096 115.96559471638903 76.19128936343654 H 0.0 **** 0.06
354 H 77.7259641964673 116.29057498279843 76.93461363193695 H 0.0 **** 0.06
355 H 77.54994398549724 114.96801137579664 75.75661533253476 H 0.0 **** 0.06
356 C 99.8290469074534 113.60388085327719 117.89078704993244 C 0.0 **** -0.24
357 H 99.39754224284059 113.48552486932499 118.88416784722119 H 0.0 **** 0.06
358 H 100.91418950445382 113.66315615466846 117.97178596251672 H 0.0 **** 0.06
359 H 99.4479550699615 114.5183883941479 117.43513053734847 H 0.0 **** 0.06
360 H 99.55690097709498 112.74924691209605 117.2716043083579 H 0.0 **** 0.06
361 C 5.742124378608054 97.45110888967224 112.67130925369162 C 0.0 **** -0.24
362 H 5.013035001729747 96.72223022019944 113.02384491413102 H 0.0 **** 0.06
363 H 6.577772985597477 97.49492831274222 113.36902487450345 H 0.0 **** 0.06
364 H 5.2724778641384376 98.43218416531806 112.60467372858744 H 0.0 **** 0.06
365 H 6.104766009526145 97.15450502460658 111.68648688973076 H 0.0 **** 0.06
366 C 139.54882383253397 74.37714118913192 44.247426958998744 C 0.0 **** -0.24
367 H 139.83089382963672 73.32385005847465 44.25436920927427 H 0.0 **** 0.06
368 H 138.6079073257445 74.50412311276659 44.78173729862259 H 0.0 **** 0.06
369 H 139.43138693129316 74.71518513509045 43.217235831750116 H 0.0 **** 0.06
370 H 140.32689694908774 74.96429856487586 44.73511260969313 H 0.0 **** 0.06
371 C 59.44625895544168 103.4167097578329 68.93526305924323 C 0.0 **** -0.24
372 H 58.6477114995612 103.97507909702492 68.44680579812928 H 0.0 **** 0.06
373 H 59.67321381850667 103.87376060516462 69.8986061336473 H 0.0 **** 0.06
374 H 60.33648674041987 103.43077338849193 68.30573101989346 H 0.0 **** 0.06
375 H 59.12655646367942 102.38539607220477 69.08803506693825 H 0.0 **** 0.06
376 C 46.571691840266965 84.11961807094826 56.2065405874952 C 0.0 **** -0.24
377 H 45.97603710658444 84.67014608279304 55.478783633128955 H 0.0 **** 0.06
378 H 47.27536091141678 84.79882431868303 56.688270366843724 H 0.0 **** 0.06
379 H 47.12109981319577 83.32675050977637 55.699358416916 H 0.0 **** 0.06
380 H 45.91450267963961 83.68340672189152 56.95851858473611 H 0.0 **** 0.06
381 C 33.941102559949314 10.094038440677537 108.81539855907087 C 0.0 **** -0.24
382 H 34.675944801221846 10.729208067794843 109.30873743078683 H 0.0 **** 0.06
383 H 34.29929794342938 9.06409854229804 108.80641185565102 H 0.0 **** 0.06
384 H 33.7942136257068 10.436744786562826 107.79056057477572 H 0.0 **** 0.06
385 H 32.99525916055005 10.145605164316805 109.35459610175641 H 0.0 **** 0.06
386 C 98.81347480656197 161.27899891642673 115.94900925940814 C 0.0 **** -0.24
387 H 98.59171226446378 161.01561839281658 114.91510408354515 H 0.0 **** 0.06
388 H 99.74905040803978 160.81034480726498 116.25059077247738 H 0.0 **** 0.06
389 H 98.00592297312363 160.92909100399368 116.59311048240531 H 0.0 **** 0.06
390 H 98.90344899561543 162.3620656118383 116.03598081986937 H 0.0 **** 0.06
391 C 9.449374329586476 81.45660025368407 2.941914223446929 C 0.0 **** -0.24
392 H 9.069190973180099 82.00608711235354 2.0797224139785158 H 0.0 **** 0.06
393 H 9.272108487783925 80.39015181953881 2.798870707045012 H 0.0 **** 0.06
394 H 8.936549093865437 81.7934689087444 3.841873439904532 H 0.0 **** 0.06
395 H 10.5198838071735 81.63657223648028 3.0429558704602186 H 0.0 **** 0.06
396 C 81.82211432760278 96.99968713545843 120.4187863883214 C 0.0 **** -0.24
397 H 81.1657153313572 96.1509982086497 120.61272281737297 H 0.0 **** 0.06
398 H 81.2827494104547 97.92697354341107 120.61223731897576 H 0.0 **** 0.06
399 H 82.1463385206522 96.97799583905532 119.37877197032469 H 0.0 **** 0.06
400 H 82.69295413016073 96.94212723466933 121.07170119754721 H 0.0 **** 0.06
401 C 28.18366321416778 143.8111603292169 40.647179430853384 C 0.0 **** -0.24
402 H 28.659274389494556 144.28121376406253 39.78650433034281 H 0.0 **** 0.06
403 H 28.880963835287787 143.11371500516412 41.11124808644797 H 0.0 **** 0.06
404 H 27.293633698753666 143.2739259416537 40.32127837731392 H 0.0 **** 0.06
405 H 27.90102020477272 144.5782170695796 41.36949778150989 H 0.0 **** 0.06
406 C 30.62763777002573 8.819123494003634 143.71416050036325 C 0.0 **** -0.24
407 H 29.641229698037307 8.487592033456394 144.03751300621065 H 0.0 **** 0.06
408 H 31.393063145641406 8.24535496886108 144.23858360273178 H 0.0 **** 0.06
409 H 30.747242856016157 9.877564394449621 143.9428334176679 H 0.0 **** 0.06
410 H 30.72922770451555 8.66459188013306 142.63971723181552 H 0.0 **** 0.06
411 C 144.94565715612285 118.80068328992536 114.30607570026359 C 0.0 **** -0.24
412 H 144.14128986536008 118.48495597189941 113.6420581076859 H 0.0 **** 0.06
413 H 145.38206576077232 119.72689178337919 113.93254764994822 H 0.0 **** 0.06
414 H 145.71162604731222 118.0256711170017 114.34225113832309 H 0.0 **** 0.06
415 H 144.54674160311802 118.9637533460259 115.3072312288109 H 0.0 **** 0.06
416 C 16.00911790835704 124.49479559312988 67.3025976896401 C 0.0 **** -0.24
417 H 16.362340796882506 123.48764027253696 67.52089236949496 H 0.0 **** 0.06
418 H 16.059814413447214 125.10087996645609 68.20642644213535 H 0.0 **** 0.06
419 H 14.977863705017853 124.44977233701047 66.95238413734364 H 0.0 **** 0.06
420 H 16.6357594533186 124.94044271943528 66.53012253422537 H 0.0 **** 0.06
421 C 136.43886956848291 20.239197854267616 116.99895987906572 C 0.0 **** -0.24
422 H 137.23835196322696 20.923574309719555 117.2831369886143 H 0.0 **** 0.06
423 H 136.77338741889247 19.211824440805117 117.14264888785127 H 0.0 **** 0.06
424 H 136.183384743815 20.3951315268296 115.95126239192922 H 0.0 **** 0.06
425 H 135.56231526696507 20.4266179908268 117.61980456942601 H 0.0 **** 0.06
426 C 13.320356453671252 72.07143119074777 101.2840301027205 C 0.0 **** -0.24
427 H 12.2321542379321 72.07875281931797 101.22158662131793 H 0.0 **** 0.06
428 H 13.73871164228514 71.84195904263794 100.3033959394775 H 0.0 **** 0.06
429 H 13.63731801984197 71.31391405751955 102.00020395533741 H 0.0 **** 0.06
430 H 13.67137034775493 73.04991940763378 101.6091713937169 H 0.0 **** 0.06
431 C 92.90284572686292 136.69282635986605 77.57919315120583 C 0.0 **** -0.24
432 H 92.34562843839197 137.5905820931734 77.84509043240789 H 0.0 **** 0.06
433 H 92.35487750919623 135.81263673352078 77.91716200172529 H 0.0 **** 0.06
434 H 93.88184117541357 136.7174139503078 78.0583916853156 H 0.0 **** 0.06
435 H 93.02735290359556 136.6496242859709 76.49756688721084 H 0.0 **** 0.06
436 C 104.67165138415609 68.29690319984837 91.63303790560283 C 0.0 **** -0.24
437 H 105.40292781303467 69.05250477269556 91.34667643559894 H 0.0 **** 0.06
438 H 104.32349487263323 67.77156321804196 90.74304249063667 H 0.0 **** 0.06
439 H 103.82599260307893 68.7789326826794 92.12456988781265 H 0.0 **** 0.06
440 H 105.13346699900302 67.58633868723075 92.31856709383179 H 0.0 **** 0.06
441 C 66.22181530172537 80.38861791224684 22.50714440889272 C 0.0 **** -0.24
442 H 65.83440272480465 80.01064726445497 23.452689493736713 H 0.0 **** 0.06
443 H 65.3975457693185 80.52445310559281 21.805553748733352 H 0.0 **** 0.06
444 H 66.93574235875462 79.67504199560949 22.095820420570163 H 0.0 **** 0.06
445 H 66.7188893560342 81.34453056877311 22.672934157209532 H 0.0 **** 0.06
446 C 133.97970320644959 107.31652143366057 135.02052173970407 C 0.0 **** -0.24
447 H 134.66276860247714 106.87337412452916 134.29619310696262 H 0.0 **** 0.06
448 H 134.5200328193327 107.53876695340242 135.94113551200178 H 0.0 **** 0.06
449 H 133.17111283125593 106.61661634859766 135.23283130810324 H 0.0 **** 0.06
450 H 133.56472874094487 108.23816274015465 134.6114027126548 H 0.0 **** 0.06
451 C 111.97181899729074 130.08753436871297 132.00301337868268 C 0.0 **** -0.24
452 H 111.22473799245103 130.16462715490263 131.21253658881338 H 0.0 **** 0.06
453 H 112.1326353348334 131.0698136087432 132.44808244948277 H 0.0 **** 0.06
454 H 112.90760498312872 129.71956732882728 131.58397440731966 H 0.0 **** 0.06
455 H 111.61876881794305 129.39541706133363 132.7676604000282 H 0.0 **** 0.06
456 C 2.610102292716249 140.82052278701673 151.34948002122402 C 0.0 **** -0.24
457 H 3.364172406107457 140.5617099067225 152.0929253920959 H 0.0 **** 0.06
458 H 2.93608540340918 140.4774240800803 150.36711136702814 H 0.0 **** 0.06
459 H 2.474851093495431 141.90159603809644 151.32994611635297 H 0.0 **** 0.06
460 H 1.6662653500089561 140.3403426460426 151.60811435664272 H 0.0 **** 0.06
461 C 116.33311169604195 36.781691358853294 56.60436638619433 C 0.0 **** -0.24
462 H 115.96960024810434 36.04784859233932 55.8861129278435 H 0.0 **** 0.06
463 H 115.49168532331478 37.35232704795352 56.99780435463333 H 0.0 **** 0.06
464 H 117.03150881338726 37.4578716268005 56.11088124982871 H 0.0 **** 0.06
465 H 116.83967603341557 36.26960076523598 57.42219744427075 H 0.0 **** 0.06
466 C 59.421272077660404 124.01123970101736 77.02029575514973 C 0.0 **** -0.24
467 H 60.27192960461751 123.77575779964701 76.38023097600342 H 0.0 **** 0.06
468 H 59.555309159204626 123.53660397138617 77.99235945798296 H 0.0 **** 0.06
469 H 58.506352901057 123.64048264562803 76.55781227227766 H 0.0 **** 0.06
470 H 59.35127233989812 125.09134014259135 77.14846721837438 H 0.0 **** 0.06
471 C 13.363871702648709 85.38688185878004 129.1495426071993 C 0.0 **** -0.24
472 H 12.326554798107537 85.70854732594148 129.0556925738874 H 0.0 **** 0.06
473 H 13.406763621613635 84.2976114273344 129.1552936804635 H 0.0 **** 0.06
474 H 13.781042716879483 85.7725575155707 130.07890768084002 H 0.0 **** 0.06
475 H 13.939641492208864 85.76872959144228 128.30632951362287 H 0.0 **** 0.06
476 C 155.45894847550545 40.56656571454599 45.30808942663546 C 0.0 **** -0.24
477 H 155.9751021678822 39.634501949107914 45.5375591418682 H 0.0 **** 0.06
478 H 154.58730196517257 40.356022850745106 44.68750747950381 H 0.0 **** 0.06
479 H 156.1346354505976 41.23340005908513 44.771298999514386 H 0.0 **** 0.06
480 H 155.13883533075028 41.042378003967826 46.23499616055972 H 0.0 **** 0.06
481 C 91.84835747778074 28.223115817894097 27.65523487516856 C 0.0 **** -0.24
482 H 90.94157304739632 28.119913896279854 27.058697167957064 H 0.0 **** 0.06
483 H 91.58802990267495 28.585916947037333 28.65003223033429 H 0.0 **** 0.06
484 H 92.52148023356277 28.931964239161346 27.173436665562832 H 0.0 **** 0.06
485 H 92.33910143149885 27.2540437815278 27.739053617307178 H 0.0 **** 0.06
486 C 117.96549793965937 121.18716895156041 27.356198775498314 C 0.0 **** -0.24
487 H 117.67356041099893 120.17140878822516 27.622853281945936 H 0.0 **** 0.06
488 H 117.10577669491641 121.84918811054166 27.45349642605143 H 0.0 **** 0.06
489 H 118.32354550230318 121.20333464727901 26.327500847961403 H 0.0 **** 0.06
490 H 118.76092051428563 121.52226673281271 28.022201984299215 H 0.0 **** 0.06
491 C 73.11013363128592 158.31832894025737 133.150769629837 C 0.0 **** -0.24
492 H 72.32645462606808 158.00139456405105 133.83853460374937 H 0.0 **** 0.06
493 H 73.15879311534127 157.62350557061183 132.31101629531815 H 0.0 **** 0.06
494 H 74.06854431608207 158.32752052445127 133.6709785923547 H 0.0 **** 0.06
495 H 72.88700876997365 159.31869610013248 132.7815032481624 H 0.0 **** 0.06
496 C 11.565915352005419 14.695803019503927 151.93210578437507 C 0.0 **** -0.24
497 H 10.74885977317615 14.302293357621295 152.5370414762518 H 0.0 **** 0.06
498 H 11.207513140809738 14.8914242046053 150.9216617971951 H 0.0 **** 0.06
499 H 12.375101563672246 13.96685181910425 151.8962636567539 H 0.0 **** 0.06
500 H 11.931781359149227 15.62291508820556 152.3743287581745 H 0.0 **** 0.06
501 C 70.0281089919465 31.563187020023747 141.22765847845085 C 0.0 **** -0.24
502 H 69.81490154377192 30.522398238469464 140.98514428438054 H 0.0 **** 0.06
503 H 70.97524474441052 31.624455905314676 141.76335320173231 H 0.0 **** 0.06
504 H 69.22922275862246 31.96145663223706 141.8537822531466 H 0.0 **** 0.06
505 H 70.0923141212437 32.144617946477695 140.307721172919 H 0.0 **** 0.06
506 C 99.46741746690509 117.86630256221665 61.86318365428899 C 0.0 **** -0.24
507 H 99.36201066107503 116.88651384766865 61.3972927469881 H 0.0 **** 0.06
508 H 99.56988518676249 117.74625605143979 62.94187687724221 H 0.0 **** 0.06
509 H 98.58502540320552 118.46808372128723 61.646754628521336 H 0.0 **** 0.06
510 H 100.3529077858486 118.36337269427091 61.46672931618845 H 0.0 **** 0.06
511 C 107.29099092922303 159.41107376968534 0.25581938808338833 C 0.0 **** -0.24
512 H 108.37965273741102 159.37163167730517 0.30134593086640393 H 0.0 **** 0.06
513 H 106.90508576202086 159.87352011360122 1.164807542627905 H 0.0 **** 0.06
514 H 106.89517076978419 158.40000538437698 0.1659753877143224 H 0.0 **** 0.06
515 H 106.98542035549798 159.9993488673128 -0.6091510594957796 H 0.0 **** 0.06
516 C 129.23743174050185 32.490158151149046 8.930660594972238 C 0.0 **** -0.24
517 H 128.74116459219016 32.80331262650441 8.012209158110863 H 0.0 **** 0.06
518 H 128.50030170345508 32.06725254257185 9.6145166207138 H 0.0 **** 0.06
519 H 129.71464420050904 33.35168583469516 9.397829919333645 H 0.0 **** 0.06
520 H 129.9908119953135 31.737496317845114 8.698679548207366 H 0.0 **** 0.06
521 C 88.88852767718183 1.0603086055094266 17.124120768537125 C 0.0 **** -0.24
522 H 88.95731137130552 2.1471039890013373 17.174364794369183 H 0.0 **** 0.06
523 H 88.36484853829886 0.6886225949350191 18.004449969943437 H 0.0 **** 0.06
524 H 89.89218678027397 0.6344249361706886 17.091342550129752 H 0.0 **** 0.06
525 H 88.34239044906181 0.7725313442661985 16.226390186083222 H 0.0 **** 0.06
526 C 80.70285738655434 142.7995104166706 120.42904561408255 C 0.0 **** -0.24
527 H 81.4778673122421 142.49953991463343 119.72402209944994 H 0.0 **** 0.06
528 H 80.12270188108992 143.61840953071356 120.0035180698934 H 0.0 **** 0.06
529 H 81.16568268647063 143.12768612794181 121.35973530448678 H 0.0 **** 0.06
530 H 80.04529281310873 141.95378139260671 120.62921577640321 H 0.0 **** 0.06
531 C 40.720453993950514 140.20524612160506 149.98284156629063 C 0.0 **** -0.24
532 H 41.20506911687602 141.1811769611242 149.97003471110907 H 0.0 **** 0.06
533 H 40.62284123680564 139.8353029811413 148.96185640511533 H 0.0 **** 0.06
534 H 39.73244344137254 140.2956451888076 150.43372070560252 H 0.0 **** 0.06
535 H 41.323671190619436 139.50853943656585 150.56561998791148 H 0.0 **** 0.06
536 C 142.34218676557236 12.4052638923296 72.11564994251525 C 0.0 **** -0.24
537 H 143.29080170018182 12.142387716396115 71.64733414771953 H 0.0 **** 0.06
538 H 141.7949100950682 11.49475176852792 72.36291057810972 H 0.0 **** 0.06
539 H 141.75118827923683 13.007599270574133 71.42513581437936 H 0.0 **** 0.06
540 H 142.53171022289013 12.974772382702866 73.02465090364582 H 0.0 **** 0.06
541 C 34.830683222358516 59.977044698528346 91.17720536274908 C 0.0 **** -0.24
542 H 34.7529341559665 60.46021798690005 92.15084569321792 H 0.0 **** 0.06
543 H 34.0183102340788 60.3189377147806 90.53533919966549 H 0.0 **** 0.06
544 H 34.76432574306142 58.89614756300658 91.30323289563461 H 0.0 **** 0.06
545 H 35.787336741314164 60.231344766435896 90.72130804557358 H 0.0 **** 0.06
546 C 100.6025090459176 126.07191919249672 133.97245086837927 C 0.0 **** -0.24
547 H 99.55225106659057 125.90866168959528 134.21223825977125 H 0.0 **** 0.06
548 H 100.9680972863298 125.24543350562996 133.3625315926727 H 0.0 **** 0.06
549 H 101.18081333480677 126.12751036651264 134.89489904406835 H 0.0 **** 0.06
550 H 100.70790174778875 127.00597336388788 133.42034485702976 H 0.0 **** 0.06
551 C 49.5970078236722 75.13614124584956 49.81475224512292 C 0.0 **** -0.24
552 H 48.692934827158325 74.52862002023804 49.845877991500856 H 0.0 **** 0.06
553 H 49.79257704013102 75.44345526067698 48.787233074828976 H 0.0 **** 0.06
554 H 50.43964875674574 74.55260551295004 50.18600845166827 H 0.0 **** 0.06
555 H 49.46296190475272 76.01956349299729 50.438946668639744 H 0.0 **** 0.06
556 C 31.884525037532455 137.58700631726794 3.920090080266789 C 0.0 **** -0.24
557 H 31.7730549381931 138.61173722391956 4.273205945501303 H 0.0 **** 0.06
558 H 32.880797421205244 137.22298766843127 4.168359237830401 H 0.0 **** 0.06
559 H 31.745029861379294 137.55912609827192 2.8387970185919187 H 0.0 **** 0.06
560 H 31.136281459787966 136.95464826120406 4.399607275868988 H 0.0 **** 0.06
561 C 55.726546928111816 106.14145998680843 106.89973792073641 C 0.0 **** -0.24
562 H 55.59735862934957 106.36751496624976 107.95825168534029 H 0.0 **** 0.06
563 H 55.902746892436085 105.07288517773398 106.77489274685789 H 0.0 **** 0.06
564 H 56.57868647219658 106.69793649029015 106.51096945547678 H 0.0 **** 0.06
565 H 54.826418972393526 106.42771346646629 106.35488060642805 H 0.0 **** 0.06
566 C 144.7329823659632 104.71473965525979 63.29223753947251 C 0.0 **** -0.24
567 H 145.07344874741722 105.74750603245812 63.35564938486327 H 0.0 **** 0.06
568 H 143.6586415602481 104.69703552589172 63.10402673080711 H 0.0 **** 0.06
569 H 144.94563988116215 104.20443059008062 64.23126377670366 H 0.0 **** 0.06
570 H 145.25301569211769 104.20939025179382 62.47751659295166 H 0.0 **** 0.06
571 C 78.42527871963176 103.22106823977117 101.40436193360685 C 0.0 **** -0.24
572 H 78.49834427798555 102.15479730535145 101.19185886489697 H 0.0 **** 0.06
573 H 77.38012461507651 103.48917350297324 101.55961762082674 H 0.0 **** 0.06
574 H 78.82630814658134 103.7881815853359 100.56445378300793 H 0.0 **** 0.06
575 H 78.99679010268619 103.45217575747495 102.3037066578278 H 0.0 **** 0.06
576 C 100.17678775521199 65.33718746125116 83.15447763498634 C 0.0 **** -0.24
577 H 100.09435117637653 66.41101924329179 83.31812153995384 H 0.0 **** 0.06
578 H 101.14930023437833 64.98894809955728 83.50442723622265 H 0.0 **** 0.06
579 H 100.07559091376672 65.12303873451616 82.08992495128487 H 0.0 **** 0.06
580 H 99.38767971642338 64.824849193005 83.70436566133355 H 0.0 **** 0.06
581 C 96.31095843987082 10.138173661380733 105.42454079868469 C 0.0 **** -0.24
582 H 96.54487867966844 9.076705934234617 105.3376588784327 H 0.0 **** 0.06
583 H 95.24087764206139 10.261140448407964 105.59045674088819 H 0.0 **** 0.06
584 H 96.59849536168363 10.649353026132097 104.50605562389745 H 0.0 **** 0.06
585 H 96.86054882503436 10.56327651935321 106.26361396919145 H 0.0 **** 0.06
586 C 31.227146899554654 86.42571274779118 127.41070657496687 C 0.0 **** -0.24
587 H 31.792049000954044 86.74488134996625 128.28703636466847 H 0.0 **** 0.06
588 H 31.603865378853477 85.46403106446473 127.06544679110795 H 0.0 **** 0.06
589 H 31.337735475650327 87.16665205557035 126.61845094153489 H 0.0 **** 0.06
590 H 30.17374183346218 86.3311029580019 127.67412944295171 H 0.0 **** 0.06
591 C 8.12325187976856 137.109062497898 145.93269559516114 C 0.0 **** -0.24
592 H 9.1255061707202 137.44558788902796 146.20011640353678 H 0.0 **** 0.06
593 H 7.4815437645989675 137.14435556767825 146.81242050404504 H 0.0 **** 0.06
594 H 8.171278820727537 136.08723543995023 145.55713239959513 H 0.0 **** 0.06
595 H 7.71571120471566 137.76135438977127 145.15946355824357 H 0.0 **** 0.06
596 C 92.5779219789572 4.4223313741676975 124.26540501779874 C 0.0 **** -0.24
597 H 91.59816882128001 4.40314076304557 124.74304540146878 H 0.0 **** 0.06
598 H 93.16499823815651 5.244858917952229 124.6750326398541 H 0.0 **** 0.06
599 H 92.45519869475461 4.56275680450176 123.19122739463555 H 0.0 **** 0.06
600 H 93.09142243151426 3.4797409230276912 124.45218122249565 H 0.0 **** 0.06
601 C 52.9896558769519 69.13115734366369 125.00223547840997 C 0.0 **** -0.24
602 H 53.39518833226856 68.8897593971854 125.98522954875392 H 0.0 **** 0.06
603 H 53.37931866557045 68.42811321170728 124.2661392137291 H 0.0 **** 0.06
604 H 53.283151286168504 70.14436488412576 124.72789850088611 H 0.0 **** 0.06
605 H 51.90248595329524 69.06261040150537 125.03129939079443 H 0.0 **** 0.06
606 C 133.55030042576243 148.35002518846048 96.32463679676415 C 0.0 **** -0.24
607 H 133.5148984501538 147.49373067806832 96.9987467967791 H 0.0 **** 0.06
608 H 132.62245853467314 148.91495383306207 96.40615896958124 H 0.0 **** 0.06
609 H 133.6741467879599 147.9992454101337 95.30019671831039 H 0.0 **** 0.06
610 H 134.39130421243436 148.98933413997318 96.59405573808976 H 0.0 **** 0.06
611 C 150.6843070375719 159.24340041102923 26.108762746679204 C 0.0 **** -0.24
612 H 151.6989185527466 159.36475928578693 26.486483959404616 H 0.0 **** 0.06
613 H 149.9762380092085 159.33306124199737 26.9323354692807 H 0.0 **** 0.06
614 H 150.58337170708285 158.25910452799314 25.648911029638697 H 0.0 **** 0.06
615 H 150.47889964419994 160.0129107621097 25.365653446921435 H 0.0 **** 0.06
616 C 159.6315727388423 159.71812850068505 151.86889178199152 C 0.0 **** -0.24
617 H 159.31227213143114 159.21991259713957 152.78359602591672 H 0.0 **** 0.06
618 H 160.11245714033592 158.99434004194222 151.21026340444917 H 0.0 **** 0.06
619 H 160.33881437491175 160.51105739231699 152.11527145452573 H 0.0 **** 0.06
620 H 158.76442584872822 160.14810006175145 151.36761083926848 H 0.0 **** 0.06
621 C 0.47928378313960707 30.37748989660213 140.80861761780673 C 0.0 **** -0.24
622 H 0.01181852795856031 31.189269831403664 141.3643319104437 H 0.0 **** 0.06
623 H -0.024041322144430666 30.25763769817013 139.84860033566974 H 0.0 **** 0.06
624 H 0.39722679658542503 29.452707903301643 141.37987655861826 H 0.0 **** 0.06
625 H 1.531430198039338 30.608806003329562 140.64128367356486 H 0.0 **** 0.06
626 C 151.37043440898287 30.05104172269469 52.05448219229123 C 0.0 **** -0.24
627 H 151.95411613792336 30.594336925708745 52.7971879202795 H 0.0 **** 0.06
628 H 151.18268787643825 29.03770172161944 52.41096665255844 H 0.0 **** 0.06
629 H 151.92504079803936 30.008888364125767 51.116505254627555 H 0.0 **** 0.06
630 H 150.42192258563585 30.56186907056079 51.893235323129176 H 0.0 **** 0.06
631 C 161.55691599792033 6.982443877337332 127.08879237204056 C 0.0 **** -0.24
632 H 162.45842462998272 7.575124355653472 126.93222000877014 H 0.0 **** 0.06
633 H 161.1281338679552 6.713750879669092 126.1220509947884 H 0.0 **** 0.06
634 H 160.83281635736563 7.56582524421961 127.65731303148874 H 0.0 **** 0.06
635 H 161.80855140549048 6.077207000955006 127.64006601750728 H 0.0 **** 0.06
636 C 157.16619016612194 119.41865309793295 7.202827993515314 C 0.0 **** -0.24
637 H 156.41494339070374 118.66348730527051 7.431984567683372 H 0.0 **** 0.06
638 H 158.15831084611236 119.01934190809388 7.41392984663679 H 0.0 **** 0.06
639 H 156.99136493156982 120.30274831186361 7.815507868947691 H 0.0 **** 0.06
640 H 157.09936218944992 119.68827694350253 6.147935622021066 H 0.0 **** 0.06
641 C 25.612358584212075 101.93029076996572 75.06971708596345 C 0.0 **** -0.24
642 H 26.39323993765379 102.56944003872431 74.65657981315164 H 0.0 **** 0.06
643 H 25.143142091215566 102.43137957917722 75.91609213810128 H 0.0 **** 0.06
644 H 26.051090839474966 100.98909202013817 75.40045529989645 H 0.0 **** 0.06
645 H 24.863004808621895 101.73119898612114 74.30292880512732 H 0.0 **** 0.06
646 C 94.4665475231284 145.95378818724257 2.3534965677599473 C 0.0 **** -0.24
647 H 95.39553592850686 146.286438648254 1.8901499617217397 H 0.0 **** 0.06
648 H 93.76217106756073 146.78457559939926 2.3938318735163264 H 0.0 **** 0.06
649 H 94.67071938737543 145.60032743182558 3.364189993449358 H 0.0 **** 0.06
650 H 94.03761795897844 145.14184543945808 1.7654750661560996 H 0.0 **** 0.06
651 C 108.29749697375476 116.89750228555798 148.3718590742946 C 0.0 **** -0.24
652 H 108.53347744837185 117.89210832219067 147.99337670263756 H 0.0 **** 0.06
653 H 108.32532053980361 116.18144363293254 147.55035574531718 H 0.0 **** 0.06
654 H 107.30296759631725 116.90357150098308 148.8160249068859 H 0.0 **** 0.06
655 H 109.0316448265942 116.61382878746988 149.12649683991435 H 0.0 **** 0.06
656 C 53.66391797138304 39.73763375590423 2.7942777847383127 C 0.0 **** -0.24
657 H 54.41843326655223 38.99194574933637 3.0458288487558036 H 0.0 **** 0.06
658 H 54.15410548209887 40.65037867946819 2.4532853920731554 H 0.0 **** 0.06
659 H 53.06138782255336 39.956248267735134 3.6758502252891105 H 0.0 **** 0.06
660 H 53.02174531432783 39.35196232707713 2.002146672835238 H 0.0 **** 0.06
661 C 97.73836261473275 15.62383742998761 75.20957202748257 C 0.0 **** -0.24
662 H 98.50731260693917 15.029937201243179 75.70428740331648 H 0.0 **** 0.06
663 H 98.0083219697687 15.767538361327325 74.16212898740359 H 0.0 **** 0.06
664 H 97.65685921831175 16.5936563826412 75.7002901218547 H 0.0 **** 0.06
665 H 96.78295886946071 15.103573593923613 75.27032605560144 H 0.0 **** 0.06
666 C 57.911082847096935 141.81821885013107 57.564593821516524 C 0.0 **** -0.24
667 H 58.32350898289866 142.7979801459225 57.32188542278493 H 0.0 **** 0.06
668 H 58.55538534167235 141.04088865970553 57.15287796093452 H 0.0 **** 0.06
669 H 56.91314449771413 141.72845015300948 57.13550352050942 H 0.0 **** 0.06
670 H 57.85308707965447 141.7064294234446 58.64732946478381 H 0.0 **** 0.06
671 C 2.075234796456357 63.675108527373425 76.38427107147099 C 0.0 **** -0.24
672 H 2.5036814884201704 64.54062616538235 75.87900034914685 H 0.0 **** 0.06
673 H 2.8743749862114214 63.076398203595886 76.82049777768832 H 0.0 **** 0.06
674 H 1.5205881064993036 63.07193762329263 75.66499797534267 H 0.0 **** 0.06
675 H 1.4013630453071642 64.01123734708258 77.17231049634796 H 0.0 **** 0.06
676 C 107.13133244554126 161.5977949014859 44.907841969215184 C 0.0 **** -0.24
677 H 107.24474249737796 161.13243776686727 43.928579102800214 H 0.0 **** 0.06
678 H 107.40969542861683 160.88515486503923 45.68375953089071 H 0.0 **** 0.06
679 H 106.09351623952512 161.90165670785365 45.0480575525896 H 0.0 **** 0.06
680 H 107.77715664626731 162.47385046436017 44.96984694979402 H 0.0 **** 0.06
681 C 16.01559302481266 152.0343242303047 22.519889183459497 C 0.0 **** -0.24
682 H 15.977866664787086 152.93227102751698 21.902868813119227 H 0.0 **** 0.06
683 H 16.578362401099582 152.2432143073015 23.430364585214534 H 0.0 **** 0.06
684 H 16.50524969937439 151.23328834211614 21.96584973428714 H 0.0 **** 0.06
685 H 15.001999144744929 151.72933754823922 22.780811465098516 H 0.0 **** 0.06
686 C 26.44203059012858 149.65249880820295 5.148234110100475 C 0.0 **** -0.24
687 H 27.521247776681093 149.5266774633064 5.237900847369701 H 0.0 **** 0.06
688 H 25.95851215779038 149.30105767515028 6.060396896509388 H 0.0 **** 0.06
689 H 26.077385040822207 149.0752898002903 4.298805933463484 H 0.0 **** 0.06
690 H 26.21082697982382 150.70713091961767 4.998058011034061 H 0.0 **** 0.06
691 C 62.69471338630014 83.57434668255291 67.64623749659916 C 0.0 **** -0.24
692 H 62.455441812406576 83.16672124907006 68.62860631051079 H 0.0 **** 0.06
693 H 61.87660001261189 83.36592990691815 66.95729135214627 H 0.0 **** 0.06
694 H 63.6105357566677 83.1134481850113 67.27456176026215 H 0.0 **** 0.06
695 H 62.837781895387934 84.65253845675772 67.7255709106848 H 0.0 **** 0.06
696 C 154.37685862537364 67.73696454938577 46.09025249617444 C 0.0 **** -0.24
697 H 154.72398003418687 68.60170358359521 46.65543474462487 H 0.0 **** 0.06
698 H 155.23582687631108 67.15477462329028 45.75537145113118 H 0.0 **** 0.06
699 H 153.80562884328538 68.07398083582265 45.2259224782632 H 0.0 **** 0.06
700 H 153.74427286868428 67.1180934100579 46.72636618124652 H 0.0 **** 0.06
701 C 128.54696261864933 20.85316863684517 140.6705565467406 C 0.0 **** -0.24
702 H 127.50421058537304 20.57849286030512 140.82494963574158 H 0.0 **** 0.06
703 H 128.60709561219613 21.89909265046151 140.36848228690428 H 0.0 **** 0.06
704 H 128.9762632406213 20.225067300921523 139.89001600183929 H 0.0 **** 0.06
705 H 129.10153719317583 20.71008104263217 141.59813125921772 H 0.0 **** 0.06
706 C 136.24989062542238 7.589529830008459 95.4926406390062 C 0.0 **** -0.24
707 H 137.17578427431582 7.389623638578968 96.03310003504569 H 0.0 **** 0.06
708 H 135.42975739444688 7.0506862349412955 95.96699274003532 H 0.0 **** 0.06
709 H 136.3549514448197 7.2566456875701135 94.45944062663511 H 0.0 **** 0.06
710 H 136.04190043207308 8.6589489594134 95.51131243058032 H 0.0 **** 0.06
711 C 103.79402700059495 80.80105114485193 117.27013045678035 C 0.0 **** -0.24
712 H 102.75759758877052 81.04591815759483 117.03697152266727 H 0.0 **** 0.06
713 H 103.84691061680985 79.78579879860217 117.66448801172149 H 0.0 **** 0.06
714 H 104.1728813476463 81.50065602959359 118.01579477251101 H 0.0 **** 0.06
715 H 104.39702282260623 80.87158377756063 116.36592528989104 H 0.0 **** 0.06
716 C 136.10071230909642 152.67069341497205 50.47893418845996 C 0.0 **** -0.24
717 H 135.74555274670684 151.64632778687618 50.368274397859494 H 0.0 **** 0.06
718 H 136.6662624913826 152.76097911473798 51.4073728761621 H 0.0 **** 0.06
719 H 135.2490379400323 153.3497761229578 50.50560390708003 H 0.0 **** 0.06
720 H 136.74324547244453 152.92566474267022 49.63604711508307 H 0.0 **** 0.06
721 C 16.72003433367371 85.18565550492809 147.58827434600292 C 0.0 **** -0.24
722 H 16.032006976930774 84.65653037414017 148.24809540269982 H 0.0 **** 0.06
723 H 16.15165051375979 85.77071824794626 146.86446269170435 H 0.0 **** 0.06
724 H 17.345905804787918 84.46353267351006 147.06201259075885 H 0.0 **** 0.06
725 H 17.35109884667321 85.84972229136702 148.179013495236 H 0.0 **** 0.06
726 C 54.4105481089901 20.21992763077833 134.535054352067 C 0.0 **** -0.24
727 H 54.97174588155751 20.901442603165748 133.89531590899225 H 0.0 **** 0.06
728 H 54.89415918437366 20.157297877931 135.5105925313405 H 0.0 **** 0.06
729 H 54.38484838055889 19.230650385873446 134.07775037954565 H 0.0 **** 0.06
730 H 53.39302604871115 20.59083089472972 134.65702759650702 H 0.0 **** 0.06
731 C 39.567878699834296 151.59863942134663 75.22765252565335 C 0.0 **** -0.24
732 H 40.316960723310984 150.90611531106137 75.61233986969177 H 0.0 **** 0.06
733 H 39.75642066932629 151.7864553660527 74.17057780908141 H 0.0 **** 0.06
734 H 39.62414788445854 152.53710200643326 75.77964312823383 H 0.0 **** 0.06
735 H 38.575846291639735 151.16416928657867 75.34906193562719 H 0.0 **** 0.06
736 C 129.93316530371197 39.90116007318012 107.44727308456112 C 0.0 **** -0.24
737 H 130.3297881517732 39.47459771473457 108.36871257422365 H 0.0 **** 0.06
738 H 129.76892316711155 40.9710642741624 107.5845117442224 H 0.0 **** 0.06
739 H 128.98889183200043 39.4166518801605 107.19960139350272 H 0.0 **** 0.06
740 H 130.646186453643 39.744144124955056 106.63836971220985 H 0.0 **** 0.06
741 C 112.05709057322227 59.39104765132765 115.05318621737248 C 0.0 **** -0.24
742 H 111.85448779376424 59.44466242252267 116.12323502507348 H 0.0 **** 0.06
743 H 111.42609060483568 60.10819608702997 114.5280662117128 H 0.0 **** 0.06
744 H 111.84235732029376 58.38430201675797 114.6929782880554 H 0.0 **** 0.06
745 H 113.10551441631696 59.62554113530831 114.87013132223237 H 0.0 **** 0.06
746 C 18.489579191362793 71.82296483959661 125.91128685463323 C 0.0 **** -0.24
747 H 17.862696240338437 72.69176688412585 126.11494014924332 H 0.0 **** 0.06
748 H 19.514937326245445 72.03662471946063 126.21366082352762 H 0.0 **** 0.06
749 H 18.46328347312783 71.5976662019371 124.84547359985822 H 0.0 **** 0.06
750 H 18.116459101807607 70.96699721089931 126.47345735212511 H 0.0 **** 0.06
751 C 119.82089182404295 64.88347319037348 3.5036623356829466 C 0.0 **** -0.24
752 H 118.95332689406368 64.38877448625988 3.941143947822148 H 0.0 **** 0.06
753 H 119.75101810147342 65.95829900348542 3.674334610144008 H 0.0 **** 0.06
754 H 119.8498881128003 64.68615596849594 2.431881576027827 H 0.0 **** 0.06
755 H 120.73027822115807 64.49963995483463 3.968319572576007 H 0.0 **** 0.06
756 C 44.3688095427334 35.79538262504626 30.619320759962598 C 0.0 **** -0.24
757 H 44.24602890107775 36.64176480842089 31.294316269621525 H 0.0 **** 0.06
758 H 44.476632206724844 36.15940768907805 29.59701067164704 H 0.0 **** 0.06
759 H 43.49341806560369 35.1491174185919 30.684489034704654 H 0.0 **** 0.06
760 H 45.25856608289064 35.23308181620311 30.90095869661375 H 0.0 **** 0.06
761 C 25.575401339024964 124.34838611250177 91.77109969402125 C 0.0 **** -0.24
762 H 24.760607347948564 125.02909963806474 92.01929261695868 H 0.0 **** 0.06
763 H 25.386902516464218 123.37657549005581 92.22752292849 H 0.0 **** 0.06
764 H 26.51374630959139 124.75248841132998 92.14973259744049 H 0.0 **** 0.06
765 H 25.637402451153847 124.23657495162297 90.68879475960172 H 0.0 **** 0.06
766 C 128.0999050636817 91.93845773858692 107.65665680372268 C 0.0 **** -0.24
767 H 128.7724056963339 91.0810432071993 107.66950439696473 H 0.0 **** 0.06
768 H 128.67173817792963 92.85231200876748 107.82352254168595 H 0.0 **** 0.06
769 H 127.35424587952312 91.82794454763321 108.44331685737006 H 0.0 **** 0.06
770 H 127.60089633460922 91.99396184023497 106.68859767695386 H 0.0 **** 0.06
771 C 80.43378733427213 142.06664656932725 89.2753723559063 C 0.0 **** -0.24
772 H 81.25125661310712 141.38343728601265 89.04184729642735 H 0.0 **** 0.06
773 H 80.70025741703282 142.66691644429696 90.1456433747292 H 0.0 **** 0.06
774 H 79.53244089993778 141.4934974307733 89.49035025519399 H 0.0 **** 0.06
775 H 80.25267806070497 142.72134764904558 88.42271369385232 H 0.0 **** 0.06
776 C 143.1250636837467 48.71491842723424 141.5093482343966 C 0.0 **** -0.24
777 H 142.76224553508285 48.98464404824324 142.5003592775641 H 0.0 **** 0.06
778 H 142.55415084368724 49.25421733071687 140.75385894859141 H 0.0 **** 0.06
779 H 143.00442242993523 47.64161452376595 141.3590641523054 H 0.0 **** 0.06
780 H 144.17964536437916 48.9767641979941 141.4242945912136 H 0.0 **** 0.06
781 C 17.917375366082723 156.18271239676045 145.0849835588245 C 0.0 **** -0.24
782 H 18.581554630683584 155.33406261798416 145.24698756427478 H 0.0 **** 0.06
783 H 17.343845551625762 156.37442996026422 145.99207660586237 H 0.0 **** 0.06
784 H 17.23552271523743 155.9582773154645 144.26447717525224 H 0.0 **** 0.06
785 H 18.508835734100842 157.06378698536963 144.8354719028285 H 0.0 **** 0.06
786 C 30.512899500665725 82.43139663910404 92.77968751294836 C 0.0 **** -0.24
787 H 30.501876596710616 81.36610574553329 92.54990140918687 H 0.0 **** 0.06
788 H 31.356509374825038 82.65289319015147 93.43432523705025 H 0.0 **** 0.06
789 H 29.583681176199207 82.705000300855 93.27812121626886 H 0.0 **** 0.06
790 H 30.611029772416572 83.00102216398804 91.85484206234239 H 0.0 **** 0.06
791 C 17.576028888779888 3.9374095949487327 23.834755818417463 C 0.0 **** -0.24
792 H 17.09781241093137 4.873892411386585 24.120737936505435 H 0.0 **** 0.06
793 H 17.559384323146986 3.248188045821429 24.67854100770022 H 0.0 **** 0.06
794 H 18.608440035746128 4.13034741929544 23.542853297735 H 0.0 **** 0.06
795 H 17.03785440652416 3.4974348506101265 22.994755623025526 H 0.0 **** 0.06
796 C 50.77727181501439 90.97224158664082 143.63767174338741 C 0.0 **** -0.24
797 H 50.6608523143729 92.051514389196 143.53491670076602 H 0.0 **** 0.06
798 H 51.837784231086005 90.72715277127287 143.70222225527468 H 0.0 **** 0.06
799 H 50.34189605403583 90.4768713281527 142.76975808802965 H 0.0 **** 0.06
800 H 50.269631623028715 90.63531421869973 144.54128351233155 H 0.0 **** 0.06
801 C 109.67483173319329 160.94050134380973 152.06655819448082 C 0.0 **** -0.24
802 H 110.00431300989251 160.0646859260567 151.5071850538028 H 0.0 **** 0.06
803 H 110.002526375911 161.84446356304477 151.55365043644022 H 0.0 **** 0.06
804 H 110.10412523013707 160.91417483939864 153.06842838741906 H 0.0 **** 0.06
805 H 108.58716388754098 160.93724507377146 152.1385506492775 H 0.0 **** 0.06
806 C 39.321980759392375 44.92567775788663 158.89881811642812 C 0.0 **** -0.24
807 H 39.35757027988916 45.685983252169365 159.67876092420948 H 0.0 **** 0.06
808 H 40.33702939287218 44.66601415218361 158.59796608595306 H 0.0 **** 0.06
809 H 38.776425494758826 45.31320419457444 158.03823658093486 H 0.0 **** 0.06
810 H 38.81694068481525 44.03825825833104 159.27964746919568 H 0.0 **** 0.06
811 C 85.5106357119179 159.8757417579862 90.75337362949084 C 0.0 **** -0.24
812 H 86.46828867238466 159.52068975317226 91.13371653876455 H 0.0 **** 0.06
813 H 85.49901765982021 159.79495713949714 89.66644229700215 H 0.0 **** 0.06
814 H 85.36813158717729 160.9175977856442 91.04141263233167 H 0.0 **** 0.06
815 H 84.70614320583206 159.26985350423254 91.17216371480811 H 0.0 **** 0.06
816 C 5.934117843483392 50.66693009132449 129.48308696081162 C 0.0 **** -0.24
817 H 6.440544992230741 50.262874565197336 130.35903644449812 H 0.0 **** 0.06
818 H 6.611943347499938 51.33135058101759 128.94535569532601 H 0.0 **** 0.06
819 H 5.052334731127914 51.224900616951274 129.79872964375684 H 0.0 **** 0.06
820 H 5.631917399644976 49.84968516876157 128.82836680893294 H 0.0 **** 0.06
821 C 149.56834658915488 96.50504475582693 31.74563072623758 C 0.0 **** -0.24
822 H 149.068748738379 95.551464025075 31.574579168280223 H 0.0 **** 0.06
823 H 150.12445778529008 96.78864323208234 30.85271244096907 H 0.0 **** 0.06
824 H 150.25499234921153 96.40896991728249 32.586782368885565 H 0.0 **** 0.06
825 H 148.8249043033496 97.26996585783377 31.96924227011948 H 0.0 **** 0.06
826 C 100.32813939701236 76.25721165715512 118.64736678453403 C 0.0 **** -0.24
827 H 100.8484871615156 75.6472389034214 119.38608683480697 H 0.0 **** 0.06
828 H 100.85063725906568 76.19386886062955 117.69287816277904 H 0.0 **** 0.06
829 H 100.30765063308485 77.29427101623719 118.98267553702169 H 0.0 **** 0.06
830 H 99.30843606872645 75.89203165151682 118.52920371143148 H 0.0 **** 0.06
831 C 0.6279729514395669 13.992713584528758 14.150020601377491 C 0.0 **** -0.24
832 H 0.8477825947088178 15.009899380834945 13.823840174472195 H 0.0 **** 0.06
833 H 0.6864110012380351 13.316886543671934 13.29731629405353 H 0.0 **** 0.06
834 H -0.3760461213061923 13.957207008728346 14.573988606736918 H 0.0 **** 0.06
835 H 1.3527017221030064 13.68967207477786 14.905052971017938 H 0.0 **** 0.06
836 C 10.950971081136942 127.30241650384144 78.82364770876762 C 0.0 **** -0.24
837 H 10.126569983301039 128.00520538751573 78.70063759437565 H 0.0 **** 0.06
838 H 10.86147100886447 126.50586239532129 78.08466383859769 H 0.0 **** 0.06
839 H 10.915977970722793 126.87428297026781 79.82514908082241 H 0.0 **** 0.06
840 H 11.896905161329443 127.82359571284272 78.68329193195194 H 0.0 **** 0.06
841 C 53.238203011217024 50.71684381646497 132.00638898136341 C 0.0 **** -0.24
842 H 53.85723281094516 50.896033819760476 132.88473849409814 H 0.0 **** 0.06
843 H 52.312760059096945 50.224563405690446 132.30822047294032 H 0.0 **** 0.06
844 H 53.7770430025418 50.07945828253969 131.3051443675771 H 0.0 **** 0.06
845 H 53.004193977617604 51.66709109132637 131.52625072047536 H 0.0 **** 0.06
846 C 47.790790408585494 30.79898257020637 125.63398188749753 C 0.0 **** -0.24
847 H 48.81008348971635 30.428433377336717 125.52230026181621 H 0.0 **** 0.06
848 H 47.511902410500994 31.367523068358082 124.7462898970482 H 0.0 **** 0.06
849 H 47.73260286859528 31.442249206236504 126.51141226631461 H 0.0 **** 0.06
850 H 47.11016338450379 29.95612231062325 125.75497485820088 H 0.0 **** 0.06
851 C 139.1935661555529 80.62062983751221 70.32710191663048 C 0.0 **** -0.24
852 H 138.98530590710737 81.47058517512994 69.67759330585592 H 0.0 **** 0.06
853 H 140.26280670944544 80.57171071436188 70.52986378023336 H 0.0 **** 0.06
854 H 138.8732387159024 79.7015519545033 69.83544445395167 H 0.0 **** 0.06
855 H 138.65038555727438 80.73837112060941 71.2642730090802 H 0.0 **** 0.06
856 C 0.5313063849488913 104.33180914733384 47.02391694407734 C 0.0 **** -0.24
857 H 0.018015016906304027 105.25207203077383 46.74808728212395 H 0.0 **** 0.06
858 H -0.04267894605754918 103.81230473352207 47.79198523209479 H 0.0 **** 0.06
859 H 1.5226014396899075 104.57074144341709 47.410660224746124 H 0.0 **** 0.06
860 H 0.6275551266522257 103.69236354313483 46.146901932241065 H 0.0 **** 0.06
861 C 141.347034513885 32.32758173427376 26.62700081371642 C 0.0 **** -0.24
862 H 142.1339986584143 32.32140097063367 27.38126807030028 H 0.0 **** 0.06
863 H 141.1016721390791 33.35673815746924 26.366002348332984 H 0.0 **** 0.06
864 H 140.46096513285732 31.831574823757983 27.023924068729258 H 0.0 **** 0.06
865 H 141.69228354188115 31.79798758852278 25.738388951626035 H 0.0 **** 0.06
866 C 138.64798825033532 37.7114406810299 0.8460376296757204 C 0.0 **** -0.24
867 H 138.5708840344413 38.42357841944846 1.666818719259652 H 0.0 **** 0.06
868 H 137.94518185282845 36.89303602891053 1.007635591521307 H 0.0 **** 0.06
869 H 139.66201501584158 37.31551628955283 0.8024553526273053 H 0.0 **** 0.06
870 H 138.41294507553712 38.21261055017155 -0.09307116667656601 H 0.0 **** 0.06
871 C 81.97242156375631 145.5855560485752 19.574267809061467 C 0.0 **** -0.24
872 H 82.94177536963934 146.05369461929894 19.401683487275477 H 0.0 **** 0.06
873 H 82.11549805760893 144.63181728252766 20.083785607651777 H 0.0 **** 0.06
874 H 81.47635390660486 145.41610057871287 18.61924605966118 H 0.0 **** 0.06
875 H 81.35778219641324 146.23972474055978 20.19284976344119 H 0.0 **** 0.06
876 C 75.69968208981916 90.3598284926555 121.65359943465285 C 0.0 **** -0.24
877 H 76.67257901636722 89.87103075487005 121.70617510571611 H 0.0 **** 0.06
878 H 75.46923936512736 90.81342470046685 122.61822605915583 H 0.0 **** 0.06
879 H 74.936100084251 89.62241566723496 121.40700120308196 H 0.0 **** 0.06
880 H 75.72158136080769 91.13191329984843 120.88445293968942 H 0.0 **** 0.06
881 C 33.57833709803643 115.56287748270665 66.58413905058836 C 0.0 **** -0.24
882 H 33.4661171782183 115.72330524234332 67.65601332193171 H 0.0 **** 0.06
883 H 33.28071290299792 114.54318817272116 66.33691153037029 H 0.0 **** 0.06
884 H 34.61995895545033 115.71541955534016 66.301397683385 H 0.0 **** 0.06
885 H 32.9470313310006 116.2678079221102 66.04299307548013 H 0.0 **** 0.06
886 C 123.05012623456847 65.11841681093074 60.08349132908435 C 0.0 **** -0.24
887 H 122.66802817167644 64.69583005530927 61.01293975196688 H 0.0 **** 0.06
888 H 123.6850821049594 65.97610976195932 60.30966329106171 H 0.0 **** 0.06
889 H 122.21539976303478 65.43895533777885 59.45933297085121 H 0.0 **** 0.06
890 H 123.63182823930941 64.36464913103694 59.55359426818694 H 0.0 **** 0.06
891 C 34.6927909083211 102.01870428224973 70.64479167595461 C 0.0 **** -0.24
892 H 34.28866083838848 102.44633901982354 71.56204478001845 H 0.0 **** 0.06
893 H 33.874857113724985 101.78206137063171 69.96397649640656 H 0.0 **** 0.06
894 H 35.24516762910983 101.10853466207729 70.88039537922062 H 0.0 **** 0.06
895 H 35.361739952412094 102.73753955561685 70.17333135579877 H 0.0 **** 0.06
896 C 112.73969525322471 147.89482097316122 69.18169081183186 C 0.0 **** -0.24
897 H 111.67236013063848 147.6718173294264 69.19833414001545 H 0.0 **** 0.06
898 H 112.97683070638661 148.5927327696208 69.98561294890447 H 0.0 **** 0.06
899 H 113.00210974500618 148.34174449172528 68.22261789038976 H 0.0 **** 0.06
900 H 113.30538638506354 146.9736228879322 69.31973599993972 H 0.0 **** 0.06
901 C 136.20665963794474 144.3341903528597 86.77735804066505 C 0.0 **** -0.24
902 H 135.72780808117773 144.50021067469197 87.74253383035196 H 0.0 **** 0.06
903 H 137.0006160044427 145.06803121031177 86.63544691397993 H 0.0 **** 0.06
904 H 135.46878735057106 144.4377026505588 85.98271377860516 H 0.0 **** 0.06
905 H 136.63046526084582 143.3305753063418 86.75070335828975 H 0.0 **** 0.06
906 C 125.93890959782291 133.64695400767295 69.89625238228211 C 0.0 **** -0.24
907 H 126.80356364857758 133.14265348543483 70.32688237442528 H 0.0 **** 0.06
908 H 126.06071412170124 134.72590031317168 69.9973286712177 H 0.0 **** 0.06
909 H 125.03669187549946 133.33200738346068 70.42023010168032 H 0.0 **** 0.06
910 H 125.8546687455133 133.38725484862448 68.84056838180527 H 0.0 **** 0.06
911 C 68.48059063933948 102.00817706834886 153.7851225448714 C 0.0 **** -0.24
912 H 68.93820286806965 102.86357251566551 154.28181110313795 H 0.0 **** 0.06
913 H 67.81204533312655 101.49996800084455 154.47970123737346 H 0.0 **** 0.06
914 H 69.25905658204721 101.31881725286019 153.45838614784594 H 0.0 **** 0.06
915 H 67.91355544411664 102.35169951738669 152.91962599031555 H 0.0 **** 0.06
916 C 67.57376155197244 102.15955511184814 41.605276312508096 C 0.0 **** -0.24
917 H 67.46497166026103 102.19813177896151 42.6894158208828 H 0.0 **** 0.06
918 H 68.63311185195977 102.17982116198436 41.34568597574123 H 0.0 **** 0.06
919 H 67.07389005394566 103.01848277698383 41.159069447941505 H 0.0 **** 0.06
920 H 67.12465187396486 101.24046646476944 41.22826381177066 H 0.0 **** 0.06
921 C 134.78466999923162 13.472355847538239 38.94346604435691 C 0.0 **** -0.24
922 H 135.56207020703854 13.371755422630798 38.18589998411008 H 0.0 **** 0.06
923 H 134.17801766872012 14.352260466122203 38.726422946896434 H 0.0 **** 0.06
924 H 135.24645782357507 13.581338214609133 39.92474312178244 H 0.0 **** 0.06
925 H 134.15318309866632 12.584333501684569 38.93588693467041 H 0.0 **** 0.06
926 C 44.025967315529556 83.08318956358704 50.15881030757441 C 0.0 **** -0.24
927 H 43.001968152335735 83.3129927407524 49.866601428103706 H 0.0 **** 0.06
928 H 44.280871612414785 83.64178051024442 51.06026183444777 H 0.0 **** 0.06
929 H 44.70548439438713 83.36370596512467 49.35363146822044 H 0.0 **** 0.06
930 H 44.1166757666644 82.01547346909604 50.355289661630536 H 0.0 **** 0.06
931 C 19.56641397221953 76.21222467356485 44.547020592914464 C 0.0 **** -0.24
932 H 20.095176000434947 77.1241655319851 44.82437676405246 H 0.0 **** 0.06
933 H 19.541893214358154 76.12299042686647 43.46049729929511 H 0.0 **** 0.06
934 H 18.54708084967593 76.25244010400255 44.93111376239686 H 0.0 **** 0.06
935 H 20.081376874132282 75.34994120440707 44.97083929426233 H 0.0 **** 0.06
936 C 116.24049308405347 61.48660963481569 5.776657228016177 C 0.0 **** -0.24
937 H 115.99312511925535 61.39796123302409 4.718974668887427 H 0.0 **** 0.06
938 H 115.33208513909415 61.677167872106054 6.347643570027174 H 0.0 **** 0.06
939 H 116.93874799303853 62.31144013696414 5.918133640324413 H 0.0 **** 0.06
940 H 116.69833961467907 60.55892693438966 6.121954575638824 H 0.0 **** 0.06
941 C 87.82594938010666 75.59667004849061 130.96343288958235 C 0.0 **** -0.24
942 H 86.97051588149333 75.27802477384105 130.36787636759522 H 0.0 **** 0.06
943 H 88.43519031786798 76.29010336478338 130.38308765325385 H 0.0 **** 0.06
944 H 88.42408141045865 74.72646016041162 131.23396141710697 H 0.0 **** 0.06
945 H 87.47438343713722 76.09083091976379 131.86828604352257 H 0.0 **** 0.06
946 C 160.25192508504844 0.09871988267605047 13.868093933977562 C 0.0 **** -0.24
947 H 160.0775027677242 -0.4576059741467873 14.789413244387575 H 0.0 **** 0.06
948 H 160.73528952535182 -0.5515462070826231 13.138421602986753 H 0.0 **** 0.06
949 H 160.89488925412485 0.9541894706151197 14.07629991792011 H 0.0 **** 0.06
950 H 159.29883076072053 0.4476339700788685 13.469887903848466 H 0.0 **** 0.06
951 C 129.70856296113612 68.57633130476171 54.77112657939294 C 0.0 **** -0.24
952 H 129.99066851116592 67.80644478555178 55.48956382293888 H 0.0 **** 0.06
953 H 129.2357011523045 68.10972124945289 53.90691501707954 H 0.0 **** 0.06
954 H 130.59948514829736 69.11650704173104 54.44999622850483 H 0.0 **** 0.06
955 H 129.0101803137084 69.27063781893565 55.23670358867089 H 0.0 **** 0.06
956 C 130.54930535961614 34.16407753718161 126.89927263245286 C 0.0 **** -0.24
957 H 130.56418601825925 34.06279981042054 125.8140600975733 H 0.0 **** 0.06
958 H 131.527832119318 33.901723244751125 127.30097706345657 H 0.0 **** 0.06
959 H 129.79426828215043 33.49722360320786 127.31490910943754 H 0.0 **** 0.06
960 H 130.31096811203344 35.19404055522034 127.16419032716658 H 0.0 **** 0.06
961 C 55.76949112030766 33.84274150033251 63.49263540414809 C 0.0 **** -0.24
962 H 55.800661061420314 34.079607089696424 64.5564328484763 H 0.0 **** 0.06
963 H 56.32206000267384 34.59998246729937 62.93529920188425 H 0.0 **** 0.06
964 H 54.732486625475104 33.826904879708536 63.1550087155026 H 0.0 **** 0.06
965 H 56.2212398583104 32.86537014982703 63.3247450851093 H 0.0 **** 0.06
966 C 135.1815059892639 149.3442043248216 63.26540465538244 C 0.0 **** -0.24
967 H 134.64886113574386 149.5513601683555 62.33711225536996 H 0.0 **** 0.06
968 H 135.05681341070309 148.29254391994425 63.52688709104228 H 0.0 **** 0.06
969 H 134.7774436092391 149.96754365378868 64.06196192023452 H 0.0 **** 0.06
970 H 136.24066531925192 149.5634400196335 63.13359397973295 H 0.0 **** 0.06
971 C 144.53682796634814 18.047549876588484 54.870701344775114 C 0.0 **** -0.24
972 H 145.33616480570439 17.641533681822196 55.49116757496293 H 0.0 **** 0.06
973 H 144.0520958535659 18.87080688519014 55.3966638627453 H 0.0 **** 0.06
974 H 143.80478379149855 17.266048291046275 54.66549541623601 H 0.0 **** 0.06
975 H 144.95481838653467 18.410144334858636 53.932465194144754 H 0.0 **** 0.06
976 C 17.974960371725132 85.01220940216612 14.17031021167918 C 0.0 **** -0.24
977 H 17.042473570336995 85.46376421701272 14.509082219498111 H 0.0 **** 0.06
978 H 18.008930989961982 85.02494851595934 13.080954638297158 H 0.0 **** 0.06
979 H 18.028477570903476 83.98233228698243 14.523952555235553 H 0.0 **** 0.06
980 H 18.817553727423785 85.57794621911385 14.567686785711203 H 0.0 **** 0.06
981 C 118.04983828917261 131.80789218014067 46.875640178423055 C 0.0 **** -0.24
982 H 117.48246647175472 130.89838604190345 47.07555438667907 H 0.0 **** 0.06
983 H 118.89421404561253 131.57257661532012 46.22669251929682 H 0.0 **** 0.06
984 H 118.41724014074575 132.22030777033126 47.81447300023643 H 0.0 **** 0.06
985 H 117.4063372600821 132.5378393773146 46.38477526457922 H 0.0 **** 0.06
986 C 157.56838207595146 56.487042953990624 156.22059307323292 C 0.0 **** -0.24
987 H 157.65930506125952 55.89265930958925 155.31226609185907 H 0.0 **** 0.06
988 H 156.80777696765566 56.04885619911164 156.86697539052176 H 0.0 **** 0.06
989 H 157.28209355522222 57.506302587028074 155.96186632573384 H 0.0 **** 0.06
990 H 158.52548586758456 56.5002711516708 156.74343458603897 H 0.0 **** 0.06
991 C 18.725893054529998 67.41528721140216 93.17008057218828 C 0.0 **** -0.24
992 H 18.051370784947075 67.43163613107694 94.02536136575702 H 0.0 **** 0.06
993 H 18.21738734678832 66.97205900594689 92.31401424750831 H 0.0 **** 0.06
994 H 19.608656334576935 66.82379848469063 93.41517640379345 H 0.0 **** 0.06
995 H 19.028356464677252 68.43394609594213 92.92548530490865 H 0.0 **** 0.06
996 C 62.772076367671914 100.31486101004603 5.601466735846827 C 0.0 **** -0.24
997 H 62.34453381508153 100.92319056010268 4.804733803028739 H 0.0 **** 0.06
998 H 62.504132607105646 100.74254768809328 6.568120310550313 H 0.0 **** 0.06
999 H 63.8574012563824 100.29566035740743 5.500719094415842 H 0.0 **** 0.06
1000 H 62.38261360214257 99.29937746632581 5.532584456247804 H 0.0 **** 0.06
1001 C 65.57114669609689 78.07300353586146 19.6509570250729 C 0.0 **** -0.24
1002 H 66.20814654810721 78.93886101374267 19.831622110014962 H 0.0 **** 0.06
1003 H 65.30775701982628 78.03012721543502 18.593669275832866 H 0.0 **** 0.06
1004 H 64.66308594989366 78.15996873770376 20.247747270156026 H 0.0 **** 0.06
1005 H 66.10431669808571 77.16496907658507 19.92994982307937 H 0.0 **** 0.06
1006 C 47.32064176288304 113.60005529818966 28.032122015355014 C 0.0 **** -0.24
1007 H 47.59810834891448 112.6079884098242 28.38857740226686 H 0.0 **** 0.06
1008 H 48.18565021517088 114.07414261402042 27.56833170683592 H 0.0 **** 0.06
1009 H 46.980821902199324 114.20545940399984 28.872698722564678 H 0.0 **** 0.06
1010 H 46.5189875658761 113.51105861152098 27.29960582758204 H 0.0 **** 0.06
1011 C 126.24706323634791 126.19538761113307 92.49675208942973 C 0.0 **** -0.24
1012 H 126.161862772105 126.4282712784337 93.55782980218468 H 0.0 **** 0.06
1013 H 127.2267764518092 125.76218503005677 92.29777881322046 H 0.0 **** 0.06
1014 H 126.12763571725503 127.10861298209309 91.91345597529589 H 0.0 **** 0.06
1015 H 125.47109254084307 125.48210358314125 92.21767279641216 H 0.0 **** 0.06
1016 C 32.919670656131046 35.30677511018426 113.2716624678547 C 0.0 **** -0.24
1017 H 32.262197053825105 34.91571631268842 114.04758663268501 H 0.0 **** 0.06
1018 H 32.43122987420071 35.21707443716022 112.3007400795085 H 0.0 **** 0.06
1019 H 33.84967883914442 34.738943627287185 113.26417772395484 H 0.0 **** 0.06
1020 H 33.13645318556581 36.35582748901366 113.47400699526898 H 0.0 **** 0.06
1021 C 105.7060906902305 121.1917693921927 65.99859479908201 C 0.0 **** -0.24
1022 H 106.51092361689501 121.87036284416473 66.28354529203898 H 0.0 **** 0.06
1023 H 105.92148346080262 120.76398841039588 65.0196922360131 H 0.0 **** 0.06
1024 H 104.76603698826898 121.74112936620338 65.95732150155118 H 0.0 **** 0.06
1025 H 105.62792679664858 120.3925779467495 66.7364669631313 H 0.0 **** 0.06
1026 C 39.28886136863095 126.03646850149443 100.21567646909011 C 0.0 **** -0.24
1027 H 38.58470552875558 126.64115284254046 99.64314499218983 H 0.0 **** 0.06
1028 H 39.50534081923823 126.53129623702398 101.16268334801569 H 0.0 **** 0.06
1029 H 40.211075125272615 125.91918042233269 99.64705873007898 H 0.0 **** 0.06
1030 H 38.85334840272003 125.05646976524258 100.40756120729958 H 0.0 **** 0.06
1031 C 138.98035516087256 39.786122641798 5.175648683650991 C 0.0 **** -0.24
1032 H 139.36014328894976 38.81738182334364 4.850840950941937 H 0.0 **** 0.06
1033 H 138.99719487328298 40.482224445914355 4.337359627158854 H 0.0 **** 0.06
1034 H 139.60903293385917 40.17010830962232 5.979717184405345 H 0.0 **** 0.06
1035 H 137.95834006210904 39.673245672415675 5.535588601802203 H 0.0 **** 0.06
1036 C 40.236292951435075 86.99352585642275 156.33395800579603 C 0.0 **** -0.24
1037 H 40.44279303583431 86.81004366689676 157.38924797200895 H 0.0 **** 0.06
1038 H 41.0521531389453 87.57249805479212 155.9001501776795 H 0.0 **** 0.06
1039 H 39.304188749039554 87.54915870019978 156.23747113059352 H 0.0 **** 0.06
1040 H 40.148043457820904 86.04147200153913 155.8114340219081 H 0.0 **** 0.06
1041 C 41.766739293198896 86.21403318188925 14.005947093857074 C 0.0 **** -0.24
1042 H 42.09361443680234 85.60153860945337 14.845839869427728 H 0.0 **** 0.06
1043 H 42.19676437279401 85.82460043619 13.082600758529473 H 0.0 **** 0.06
1044 H 42.09641442004113 87.24169997709868 14.155870738797944 H 0.0 **** 0.06
1045 H 40.678999296316874 86.18756084314407 13.939150555205359 H 0.0 **** 0.06
1046 C 134.98122167527902 132.4537237173451 99.11091898108549 C 0.0 **** -0.24
1047 H 135.15831062067534 133.49063895172867 99.39599642600061 H 0.0 **** 0.06
1048 H 135.51045516067634 132.23730365451286 98.18227633373289 H 0.0 **** 0.06
1049 H 133.91293680882492 132.29375130020742 98.96673121797681 H 0.0 **** 0.06
1050 H 135.34409242113892 131.7934101236234 99.89903423735322 H 0.0 **** 0.06
1051 C 83.82718697337589 46.01098700594348 65.16646967602637 C 0.0 **** -0.24
1052 H 83.42388775215699 46.98070995269153 64.87494609635633 H 0.0 **** 0.06
1053 H 83.70109102814962 45.873001752262226 66.24059851191994 H 0.0 **** 0.06
1054 H 84.88636266256694 45.9679072288657 64.9155457732714 H 0.0 **** 0.06
1055 H 83.2955853617243 45.22238169890788 64.63396310245652 H 0.0 **** 0.06
1056 C 139.6569475973361 27.72653765164796 152.6075967853439 C 0.0 **** -0.24
1057 H 140.65527113846952 27.339833463546626 152.8157406697991 H 0.0 **** 0.06
1058 H 139.2542225239177 28.193809538191204 153.5062826910675 H 0.0 **** 0.06
1059 H 139.00726599666126 26.907507315675275 152.30065061326965 H 0.0 **** 0.06
1060 H 139.7132462212544 28.46530253134688 151.80773317686516 H 0.0 **** 0.06
1061 C 125.23249547301799 52.510578786442835 64.0962689641721 C 0.0 **** -0.24
1062 H 125.43447882691285 53.57378766795716 64.22866033137969 H 0.0 **** 0.06
1063 H 125.38349801195301 51.99176016616586 65.04345023474366 H 0.0 **** 0.06
1064 H 125.91032860171003 52.103680436106245 63.346575155512824 H 0.0 **** 0.06
1065 H 124.20203661068365 52.374789343367524 63.76811410423528 H 0.0 **** 0.06
1066 C 114.97620624597343 13.179549909840603 106.12804982536056 C 0.0 **** -0.24
1067 H 115.13302743931987 14.20899937647502 105.80757715339837 H 0.0 **** 0.06
1068 H 114.61827736277533 12.58767853555625 105.28505571161668 H 0.0 **** 0.06
1069 H 114.23716619968576 13.156412393460698 106.9283237113562 H 0.0 **** 0.06
1070 H 115.91676210493216 12.764030043050866 106.49042502864131 H 0.0 **** 0.06
1071 C 117.00858123569895 143.86048007343362 19.626263046239785 C 0.0 **** -0.24
1072 H 117.61200769256203 143.36127093748672 18.86735880928825 H 0.0 **** 0.06
1073 H 117.53071808361432 143.8284478963073 20.582620674293395 H 0.0 **** 0.06
1074 H 116.04829251406159 143.35209173225843 19.717864076658458 H 0.0 **** 0.06
1075 H 116.84437247009376 144.8977472343438 19.33513908607739 H 0.0 **** 0.06
1076 C 17.817086828864305 24.138923997531037 148.20397124642182 C 0.0 **** -0.24
1077 H 18.376037502813006 24.453919622368744 147.3234528071556 H 0.0 **** 0.06
1078 H 18.405821089205325 24.339500486105095 149.0983989185915 H 0.0 **** 0.06
1079 H 17.606407228336906 23.071229879627396 148.1376971795491 H 0.0 **** 0.06
1080 H 16.87807181313196 24.691421514844052 148.25438149349333 H 0.0 **** 0.06
1081 C 146.3494216372857 7.647818547561911 6.407148900120774 C 0.0 **** -0.24
1082 H 146.91936252201486 7.902192741280373 7.300281581705633 H 0.0 **** 0.06
1083 H 145.65100760710345 6.843148328906352 6.639313863014536 H 0.0 **** 0.06
1084 H 147.03038714491197 7.323113331950736 5.620976317600196 H 0.0 **** 0.06
1085 H 145.79497878633464 8.523669757368452 6.0687118037778305 H 0.0 **** 0.06
1086 C 153.52565608991154 6.892925571650608 33.44796991942371 C 0.0 **** -0.24
1087 H 153.0196412795589 6.9816993025190754 32.48696467853034 H 0.0 **** 0.06
1088 H 153.39978323956402 7.817911988623621 34.01075763431453 H 0.0 **** 0.06
1089 H 154.5876279612365 6.7090249048547435 33.28317257392462 H 0.0 **** 0.06
1090 H 153.09607609589384 6.06319221229279 34.0096695269624 H 0.0 **** 0.06
1091 C 110.6638678925149 11.50351382651013 158.855615275194 C 0.0 **** -0.24
1092 H 111.50181882896518 12.091084738422751 158.4806946123872 H 0.0 **** 0.06
1093 H 109.74810053321389 11.81352738150241 158.3517694552678 H 0.0 **** 0.06
1094 H 110.56084556811493 11.663090964848607 159.9293575257479 H 0.0 **** 0.06
1095 H 110.84636566717134 10.446583551116248 158.66242676662898 H 0.0 **** 0.06
1096 C 57.12074783152673 79.15383497141272 36.13293426931092 C 0.0 **** -0.24
1097 H 57.9003670518766 79.25986599480319 35.37818718117862 H 0.0 **** 0.06
1098 H 57.57648166391971 79.11784867905976 37.12311382735818 H 0.0 **** 0.06
1099 H 56.5658454944854 78.23264701096213 35.9534210032611 H 0.0 **** 0.06
1100 H 56.44147729764393 80.00397990670811 36.07623361149946 H 0.0 **** 0.06
1101 C 136.27871162267152 108.04751315518234 85.52683839533174 C 0.0 **** -0.24
1102 H 135.55525633243695 108.6919390458537 86.02574976497431 H 0.0 **** 0.06
1103 H 137.1443007341963 108.63771841325558 85.22637526598353 H 0.0 **** 0.06
1104 H 135.81866109592175 107.60103282332722 84.64559287540078 H 0.0 **** 0.06
1105 H 136.59479560999554 107.25981396335663 86.21083456192585 H 0.0 **** 0.06
1106 C 56.2556002276862 111.04753727267524 76.83852059174768 C 0.0 **** -0.24
1107 H 57.03492084628222 111.75409905171105 77.12434516501654 H 0.0 **** 0.06
1108 H 56.0569686895068 110.36957277164561 77.66850342232713 H 0.0 **** 0.06
1109 H 56.58526462700574 110.47428662608556 75.97162096822076 H 0.0 **** 0.06
1110 H 55.344660864256795 111.5925565909424 76.58802444381547 H 0.0 **** 0.06
1111 C 62.06636996228717 99.09464670934105 96.26749199400575 C 0.0 **** -0.24
1112 H 62.27498400564305 99.9913450423096 95.68316574581888 H 0.0 **** 0.06
1113 H 62.37354053258947 98.21359671283147 95.7022751685542 H 0.0 **** 0.06
1114 H 60.9983431807246 99.03829960732395 96.47629006456782 H 0.0 **** 0.06
1115 H 62.61873486705831 99.13481481784947 97.20606824406309 H 0.0 **** 0.06
1116 C 143.31833624648382 47.54515880994845 113.39557608691632 C 0.0 **** -0.24
1117 H 144.27236983521973 47.187350448068116 113.00922142502122 H 0.0 **** 0.06
1118 H 143.32149724730192 48.63558135945078 113.4186102261815 H 0.0 **** 0.06
1119 H 143.1670929675668 47.160267755716006 114.40438242169085 H 0.0 **** 0.06
1120 H 142.51143297003716 47.19796827626993 112.74919018644005 H 0.0 **** 0.06
1121 C 115.7400999220203 99.17879564901395 149.3841721526785 C 0.0 **** -0.24
1122 H 116.66696271058379 98.60625844131152 149.34441811521987 H 0.0 **** 0.06
1123 H 115.87197705394166 100.11969736493285 148.84945142705854 H 0.0 **** 0.06
1124 H 115.48377247962839 99.38407049178369 150.42323919526655 H 0.0 **** 0.06
1125 H 114.939243271316 98.60559498460438 148.9177394557421 H 0.0 **** 0.06
1126 C 96.52709921366468 88.7814576905132 125.46018584601535 C 0.0 **** -0.24
1127 H 95.73939880215343 88.9056961722462 124.71698888578484 H 0.0 **** 0.06
1128 H 97.12837853170373 87.90650976361968 125.20861829867022 H 0.0 **** 0.06
1129 H 96.08010045769828 88.64452697758045 126.44494366095003 H 0.0 **** 0.06
1130 H 97.16096459356609 89.66774335210212 125.46820079999213 H 0.0 **** 0.06
1131 C 159.99812417273162 80.59055920871978 92.20119518412237 C 0.0 **** -0.24
1132 H 160.2090557689371 81.6584064094818 92.2437631083716 H 0.0 **** 0.06
1133 H 158.9190394471967 80.43269311677862 92.20408409667562 H 0.0 **** 0.06
1134 H 160.44007882134176 80.0979804103168 93.06832096798605 H 0.0 **** 0.06
1135 H 160.42481605437513 80.17195911372193 91.28976232785297 H 0.0 **** 0.06
1136 C 4.799875980292839 153.6032253822138 69.84520685885231 C 0.0 **** -0.24
1137 H 5.528554783416659 153.25594204252764 69.11275662945425 H 0.0 **** 0.06
1138 H 3.98804915214793 152.88001440897324 69.92067828298735 H 0.0 **** 0.06
1139 H 4.4000569484035665 154.567913114872 69.53067670849978 H 0.0 **** 0.06
1140 H 5.2832472741830685 153.71077822237612 70.81582852107377 H 0.0 **** 0.06
1141 C 23.062095135798003 156.95951655096408 28.49428126619936 C 0.0 **** -0.24
1142 H 24.09106871970532 157.27997199501343 28.330991557075194 H 0.0 **** 0.06
1143 H 22.462799010200655 157.81265490556711 28.81282477780217 H 0.0 **** 0.06
1144 H 23.03939682905706 156.1901354736805 29.26640976397382 H 0.0 **** 0.06
1145 H 22.656496601017324 156.55560904650844 27.56687067672896 H 0.0 **** 0.06
1146 C 52.29969304923169 82.31744208673902 5.334234592166183 C 0.0 **** -0.24
1147 H 51.39293263383941 82.40328381315385 5.934187628651671 H 0.0 **** 0.06
1148 H 52.04655783237678 82.41318948161523 4.278395185604211 H 0.0 **** 0.06
1149 H 52.76180660865846 81.34704285929195 5.511920309225502 H 0.0 **** 0.06
1150 H 52.99561652478047 83.1077086414358 5.615160087595456 H 0.0 **** 0.06
1151 C 157.48208303574813 25.109854477730437 55.720388948628354 C 0.0 **** -0.24
1152 H 158.2893681019056 24.46618462400488 56.070447245365585 H 0.0 **** 0.06
1153 H 156.87272719742558 24.56669368178575 54.99753993915725 H 0.0 **** 0.06
1154 H 157.90305886583494 25.99746366969066 55.24871839422872 H 0.0 **** 0.06
1155 H 156.8628214569121 25.408009905022936 56.56678325039364 H 0.0 **** 0.06
1156 C 27.608855081099335 29.056500702996395 133.3880626832214 C 0.0 **** -0.24
1157 H 26.965147729895307 29.832815999714597 133.80263509658005 H 0.0 **** 0.06
1158 H 28.118121205019236 29.43984172620192 132.50349072401542 H 0.0 **** 0.06
1159 H 27.004195567854453 28.19164136049173 133.1137506912197 H 0.0 **** 0.06
1160 H 28.348240699187414 28.76097175886816 134.13299317154738 H 0.0 **** 0.06
1161 C 9.832143434752652 91.04821680444829 2.6561426832354016 C 0.0 **** -0.24
1162 H 9.058990040365643 91.70710326823983 3.0518803800377725 H 0.0 **** 0.06
1163 H 9.608872670595531 90.01807870631734 2.933365543152817 H 0.0 **** 0.06
1164 H 10.799569776310193 91.33414083885751 3.068000124214187 H 0.0 **** 0.06
1165 H 9.860738171740195 91.1345335288873 1.5691202943962708 H 0.0 **** 0.06
1166 C 75.0424472805912 35.08934981598084 50.41433913480097 C 0.0 **** -0.24
1167 H 75.38071207591946 36.10566974364262 50.21123422783833 H 0.0 **** 0.06
1168 H 75.3532155710376 34.79624301743287 51.4164156220279 H 0.0 **** 0.06
1169 H 75.47969061831412 34.40948805654939 49.68381461356353 H 0.0 **** 0.06
1170 H 73.95604093899158 35.04881379252791 50.34364322290361 H 0.0 **** 0.06
1171 C 129.35617786093775 74.43339142181544 76.84709549114395 C 0.0 **** -0.24
1172 H 128.57546338396884 73.7129914980539 77.09396742451014 H 0.0 **** 0.06
1173 H 129.95011849721215 74.64270636485065 77.73592313785646 H 0.0 **** 0.06
1174 H 128.8979284128047 75.356103746352 76.49054215996118 H 0.0 **** 0.06
1175 H 129.99749147460705 74.02131594747448 76.06814395169323 H 0.0 **** 0.06
1176 C 123.82731999247247 64.65028432718492 77.17305444606949 C 0.0 **** -0.24
1177 H 122.81947955064811 64.64386779427207 76.75714418190681 H 0.0 **** 0.06
1178 H 123.94873383278755 65.52069313772974 77.8182637565124 H 0.0 **** 0.06
1179 H 124.5537245120963 64.694839981097 76.36263969253906 H 0.0 **** 0.06
1180 H 123.98639852665386 63.7419678653648 77.75393315189066 H 0.0 **** 0.06
1181 C 125.04684051774154 65.95875869399345 160.1694931180822 C 0.0 **** -0.24
1182 H 125.41921705585162 64.94212126383587 160.03776252315097 H 0.0 **** 0.06
1183 H 124.79360590997396 66.11935657324375 161.21676307755502 H 0.0 **** 0.06
1184 H 124.15909704615854 66.10249632133494 159.5537595131388 H 0.0 **** 0.06
1185 H 125.81677768988902 66.66894872460233 159.86802715673667 H 0.0 **** 0.06
1186 C 44.20099950948892 22.457131883746683 73.95154096980083 C 0.0 **** -0.24
1187 H 44.5897879620569 22.488398281324294 72.93391196304614 H 0.0 **** 0.06
1188 H 43.17016031924703 22.102554945187876 73.93493885136002 H 0.0 **** 0.06
1189 H 44.23555896178857 23.45717543622368 74.38343607818042 H 0.0 **** 0.06
1190 H 44.809616850352654 21.780054642131745 74.55130526616131 H 0.0 **** 0.06
1191 C 46.20276720403649 90.34588355060626 42.52253595258682 C 0.0 **** -0.24
1192 H 46.61876237447268 89.37213033455586 42.263075816271325 H 0.0 **** 0.06
1193 H 45.17507498528363 90.22144514061159 42.86409216672425 H 0.0 **** 0.06
1194 H 46.219508054325956 90.99293066091263 41.646161829810566 H 0.0 **** 0.06
1195 H 46.798471172723055 90.79430440864809 43.316964892313095 H 0.0 **** 0.06
1196 C 9.99083715281531 25.894767772493594 20.6374139136637 C 0.0 **** -0.24
1197 H 10.529908262376651 24.949505940850315 20.701047759486485 H 0.0 **** 0.06
1198 H 10.453097876598022 26.527189850986986 19.87975225997745 H 0.0 **** 0.06
1199 H 10.026933721916159 26.398502633225576 21.60359458900981 H 0.0 **** 0.06
1200 H 8.952957695954616 25.702715948232935 20.36682906313215 H 0.0 **** 0.06
1201 C 119.25293019712652 140.4996571528553 132.78569183526213 C 0.0 **** -0.24
1202 H 120.16642825580723 140.01375093886693 132.44094650307972 H 0.0 **** 0.06
1203 H 119.23984362045485 141.53278775665694 132.43818822586928 H 0.0 **** 0.06
1204 H 119.22136410757673 140.48242075177376 133.87474983252366 H 0.0 **** 0.06
1205 H 118.38724177799065 139.97086048777808 132.3876120869595 H 0.0 **** 0.06
1206 C 9.360384485646605 82.2385614018143 126.51585414088066 C 0.0 **** -0.24
1207 H 9.639138724920265 81.3754206014873 127.12075240040002 H 0.0 **** 0.06
1208 H 9.9885829190466 83.08770802760506 126.7847195126883 H 0.0 **** 0.06
1209 H 8.315419788932346 82.48730902742282 126.69867435737874 H 0.0 **** 0.06
1210 H 9.498630105981341 82.00260875151552 125.46114312644022 H 0.0 **** 0.06
1211 C 3.8850188144592295 46.87972991656797 152.26619631897458 C 0.0 **** -0.24
1212 H 2.949658353723244 46.34134837260682 152.41753687570596 H 0.0 **** 0.06
1213 H 4.030445744435006 47.590472453089475 153.08087108105218 H 0.0 **** 0.06
1214 H 3.845898212948825 47.416579460546785 151.318308137052 H 0.0 **** 0.06
1215 H 4.713858647955853 46.17214311106835 152.24921709073692 H 0.0 **** 0.06
1216 C 151.05534495289825 116.36323205546213 10.410469463534781 C 0.0 **** -0.24
1217 H 150.40973997244245 115.48702315871193 10.349534751234046 H 0.0 **** 0.06
1218 H 151.55183965140378 116.38073095283198 11.380766667755466 H 0.0 **** 0.06
1219 H 150.45597117505457 117.26535539453388 10.2912789157308 H 0.0 **** 0.06
1220 H 151.8044295054376 116.31718694854098 9.618988519291946 H 0.0 **** 0.06
1221 C 82.59225432290668 132.25144037681986 66.88553098298709 C 0.0 **** -0.24
1222 H 83.65345887985637 132.47832386206596 66.98999935953869 H 0.0 **** 0.06
1223 H 82.07941192793788 132.47899010674482 67.8193589197993 H 0.0 **** 0.06
1224 H 82.46912096629427 131.19464247156137 66.64985917216886 H 0.0 **** 0.06
1225 H 82.16966833899221 132.85543635285273 66.08174255050089 H 0.0 **** 0.06
1226 C 156.93798883352375 50.92189718161586 116.99163555682065 C 0.0 **** -0.24
1227 H 156.64076014206964 51.60926028146808 117.78404514072773 H 0.0 **** 0.06
1228 H 156.86984312849066 49.89660802434851 117.35537057668321 H 0.0 **** 0.06
1229 H 157.96402131244812 51.13576658510796 116.69277425578696 H 0.0 **** 0.06
1230 H 156.2757587481466 51.04868012074671 116.13404164577526 H 0.0 **** 0.06
1231 C 42.09368624172066 145.62038539428755 70.37479201195667 C 0.0 **** -0.24
1232 H 42.81430969047395 146.27865585789118 69.88967790859014 H 0.0 **** 0.06
1233 H 42.03765223067896 144.67872932944158 69.82837650081021 H 0.0 **** 0.06
1234 H 41.11345934317359 146.09695443228156 70.37937804800852 H 0.0 **** 0.06
1235 H 42.410111774299224 145.42864027373696 71.40021561004487 H 0.0 **** 0.06
1236 C 3.7424425863951853 113.09308578251449 55.75395496243459 C 0.0 **** -0.24
1237 H 4.153477671935207 113.22162349575504 54.752181984977355 H 0.0 **** 0.06
1238 H 3.1741321329779737 112.16383193821719 55.79676131632033 H 0.0 **** 0.06
1239 H 3.086600015051232 113.9313267393265 55.98853430268056 H 0.0 **** 0.06
1240 H 4.55670117626795 113.0551841165296 56.47759594294446 H 0.0 **** 0.06
1241 C 153.20493995164585 13.877672378983725 103.92610526289442 C 0.0 **** -0.24
1242 H 152.64141524420478 13.028976240781269 104.31412798672173 H 0.0 **** 0.06
1243 H 153.00070788538966 14.757879131981007 104.53708582018675 H 0.0 **** 0.06
1244 H 152.90559743106448 14.072565888424478 102.89640655734229 H 0.0 **** 0.06
1245 H 154.2705236130836 13.651660165893517 103.95839737566405 H 0.0 **** 0.06
1246 C 57.01967553638036 41.00022581959796 89.83632333108493 C 0.0 **** -0.24
1247 H 56.65609510126801 42.00354843987543 89.61320484542131 H 0.0 **** 0.06
1248 H 56.22110688804631 40.27820401436237 89.66608679058226 H 0.0 **** 0.06
1249 H 57.33835314962215 40.952612510014944 90.8777677210237 H 0.0 **** 0.06
1250 H 57.864304047096326 40.76840762033015 89.1878251855623 H 0.0 **** 0.06
1251 C 53.102853338745106 0.18689033510679565 22.79365935335761 C 0.0 **** -0.24
1252 H 53.695839281802435 -0.5154632565339909 23.379765120380398 H 0.0 **** 0.06
1253 H 52.21097992184981 0.46677408982930046 23.355185646280233 H 0.0 **** 0.06
1254 H 52.80931051224046 -0.28093374243042035 21.853873153685242 H 0.0 **** 0.06
1255 H 53.69655851818477 1.0776570640582008 22.585424661372087 H 0.0 **** 0.06
1256 C 16.0410883126836 141.4145318364219 141.08802081118364 C 0.0 **** -0.24
1257 H 15.350025469172294 141.90262739005692 141.77523310127356 H 0.0 **** 0.06
1258 H 17.02274902504061 141.88227167815094 141.16727080041096 H 0.0 **** 0.06
1259 H 15.670854285308764 141.51526437952728 140.06843190589245 H 0.0 **** 0.06
1260 H 16.12012304519405 140.35695087896653 141.34329505452558 H 0.0 **** 0.06
1261 C 150.3513012276169 84.56477885174498 117.72385141824557 C 0.0 **** -0.24
1262 H 150.34192197126754 83.67172133328921 117.09840343799627 H 0.0 **** 0.06
1263 H 150.98256799448944 84.39064768247351 118.59603632054805 H 0.0 **** 0.06
1264 H 149.3353547119204 84.79067095086306 118.0494006841605 H 0.0 **** 0.06
1265 H 150.74480509294 85.40535681799501 117.15198407611032 H 0.0 **** 0.06
1266 C 137.18337086152235 85.27524182321599 78.9940226746983 C 0.0 **** -0.24
1267 H 136.55077118141577 85.59930527896019 78.16701456792698 H 0.0 **** 0.06
1268 H 137.1258037320253 84.19142671616925 79.0912526841841 H 0.0 **** 0.06
1269 H 136.84096758486783 85.74305083365343 79.91780437115703 H 0.0 **** 0.06
1270 H 138.21457912412512 85.56957304915787 78.79881892166678 H 0.0 **** 0.06
1271 C 137.03773988573178 20.297132059113324 159.04696792989645 C 0.0 **** -0.24
1272 H 137.32813095693012 20.738567519943736 160.00008681087755 H 0.0 **** 0.06
1273 H 137.92285304440506 19.906955180553204 158.5443601693211 H 0.0 **** 0.06
1274 H 136.569819836316 21.057549607017428 158.42129001527707 H 0.0 **** 0.06
1275 H 136.33143511375368 19.48583303232293 159.22260479574754 H 0.0 **** 0.06
1276 C 97.82174755654103 87.20543435207841 120.29273677725189 C 0.0 **** -0.24
1277 H 98.41999912410495 87.51829809791013 121.14732974145895 H 0.0 **** 0.06
1278 H 96.78919538556312 87.52525927912734 120.4349897344452 H 0.0 **** 0.06
1279 H 97.85612859965579 86.1192742027239 120.20200661910997 H 0.0 **** 0.06
1280 H 98.22046783171311 87.65805280655042 119.38493749994609 H 0.0 **** 0.06
1281 C 121.8392318860256 42.60193295322824 11.766007546068927 C 0.0 **** -0.24
1282 H 120.83669642235387 42.23848009995925 11.540471469979316 H 0.0 **** 0.06
1283 H 122.00178537830652 43.55446412783681 11.261268413956508 H 0.0 **** 0.06
1284 H 122.57500910283224 41.87617172028604 11.418560575348081 H 0.0 **** 0.06
1285 H 121.94263244476156 42.738092311863625 12.84170999425995 H 0.0 **** 0.06
1286 C 53.388257192406044 87.60324300048296 35.99104075956757 C 0.0 **** -0.24
1287 H 54.15688807518936 87.16661749210111 35.35321508429399 H 0.0 **** 0.06
1288 H 52.579479868899 87.99206080271911 35.37102958047987 H 0.0 **** 0.06
1289 H 53.81985288766097 88.41385792770728 36.57718614798864 H 0.0 **** 0.06
1290 H 52.996343682571336 86.83816779391445 36.66193166950666 H 0.0 **** 0.06
1291 C 33.37516771627452 130.70299504333275 104.16000708663034 C 0.0 **** -0.24
1292 H 32.51325959068703 131.32822891869068 103.92564655466686 H 0.0 **** 0.06
1293 H 33.251513549868235 130.27266629061708 105.15463853485852 H 0.0 **** 0.06
1294 H 34.28127057733701 131.30824070682627 104.13518484580243 H 0.0 **** 0.06
1295 H 33.45235076454401 129.90199555776826 103.42487141652464 H 0.0 **** 0.06
1296 C 66.77288078452321 53.8478941782634 63.86756255009334 C 0.0 **** -0.24
1297 H 67.52255176169086 53.877268484722094 64.65857484211847 H 0.0 **** 0.06
1298 H 66.7994358551872 54.782569081524 63.30798727404289 H 0.0 **** 0.06
1299 H 65.78463177280355 53.71468317875616 64.30766773695024 H 0.0 **** 0.06
1300 H 66.98642652254239 53.01557639293563 63.19672189364104 H 0.0 **** 0.06
1301 C 73.02757725960376 3.741745154630628 92.06854184653663 C 0.0 **** -0.24
1302 H 72.32485326106506 3.686674101155063 91.2372422548487 H 0.0 **** 0.06
1303 H 72.86656082235808 2.8944166696407336 92.73540166404545 H 0.0 **** 0.06
1304 H 72.87151747824446 4.671010200724766 92.61515380352301 H 0.0 **** 0.06
1305 H 74.04713560827874 3.7132754127442382 91.68314967546391 H 0.0 **** 0.06
1306 C 8.827454407546469 143.3903570623756 17.818088385946673 C 0.0 **** -0.24
1307 H 8.674496494029228 142.67619873895003 18.62678276618967 H 0.0 **** 0.06
1308 H 8.42776595641817 142.98072663238156 16.890483995262528 H 0.0 **** 0.06
1309 H 9.895019305309603 143.58209996794852 17.700718170268445 H 0.0 **** 0.06
1310 H 8.314891706841479 144.32229203917024 18.05503038418223 H 0.0 **** 0.06
1311 C 162.94013085664727 118.93530346250407 35.50301090628935 C 0.0 **** -0.24
1312 H 162.3263928187551 118.45554033321548 34.74071843516205 H 0.0 **** 0.06
1313 H 163.28442669568415 118.18707983743951 36.217228414877354 H 0.0 **** 0.06
1314 H 162.34841713053578 119.68894223654729 36.023845197215735 H 0.0 **** 0.06
1315 H 163.7999028463659 119.41034885377468 35.03186356179819 H 0.0 **** 0.06
1316 C 146.7145758231781 92.71803226314535 152.397509332916 C 0.0 **** -0.24
1317 H 145.74387669449092 93.18124194912434 152.57855322096077 H 0.0 **** 0.06
1318 H 146.57052584352138 91.67565803345906 152.11153301576684 H 0.0 **** 0.06
1319 H 147.31495760853323 92.76657926776721 153.30620992697055 H 0.0 **** 0.06
1320 H 147.22554136510118 93.24907820958401 151.59423585461627 H 0.0 **** 0.06
1321 C 47.87514104535131 138.83151793916494 34.82402841729535 C 0.0 **** -0.24
1322 H 48.77419211526046 139.21887583986273 34.345335543138106 H 0.0 **** 0.06
1323 H 47.7354712147702 139.32376310629303 35.78721320387615 H 0.0 **** 0.06
1324 H 47.979440441253075 137.75635670308327 34.977152140423755 H 0.0 **** 0.06
1325 H 47.012814711339445 139.02536534426508 34.18752603765165 H 0.0 **** 0.06
1326 C 36.821890391719705 61.49870477288218 100.81174509920618 C 0.0 **** -0.24
1327 H 37.448728036174955 62.375372154427396 100.64976450263413 H 0.0 **** 0.06
1328 H 36.308674331361416 61.592086230383785 101.76946012556539 H 0.0 **** 0.06
1329 H 37.44439482498082 60.60369530410203 100.81800226156636 H 0.0 **** 0.06
1330 H 36.086844618624525 61.425567489427664 100.0108559222127 H 0.0 **** 0.06
1331 C 47.89428738260821 44.173709414897274 105.83742377380452 C 0.0 **** -0.24
1332 H 47.292414436190995 44.92631022319617 106.34562137323314 H 0.0 **** 0.06
1333 H 48.502185621599736 44.65344478429337 105.0700812333954 H 0.0 **** 0.06
1334 H 47.24005680225848 43.43623781138302 105.37469839724235 H 0.0 **** 0.06
1335 H 48.54427359433777 43.679973134026454 106.56003935303102 H 0.0 **** 0.06
1336 C 61.96435149655633 136.6121026750957 0.16894243321840463 C 0.0 **** -0.24
1337 H 62.85638523961842 137.1940240286317 0.39690107357870374 H 0.0 **** 0.06
1338 H 61.52407701488016 136.24467609794388 1.095979623038886 H 0.0 **** 0.06
1339 H 62.23323733038285 135.76733039433213 -0.4651908783196461 H 0.0 **** 0.06
1340 H 61.24282940112383 137.24144862451686 -0.35131747748087605 H 0.0 **** 0.06
1341 C 8.60520021054461 125.41416175799662 97.80532160740881 C 0.0 **** -0.24
1342 H 7.799546709935356 124.69384706511838 97.95117451048498 H 0.0 **** 0.06
1343 H 8.580764425311315 125.78366679568927 96.78051638058122 H 0.0 **** 0.06
1344 H 9.5638515821839 124.92959249365495 97.9956951632409 H 0.0 **** 0.06
1345 H 8.476279269502527 126.2482040994515 98.49565677302502 H 0.0 **** 0.06
1346 C 131.24510045087925 16.057236385209592 14.022954181933471 C 0.0 **** -0.24
1347 H 131.9986884715379 16.797668434061364 13.754806218823774 H 0.0 **** 0.06
1348 H 131.33443152772628 15.192624566848792 13.364479999491778 H 0.0 **** 0.06
1349 H 130.25266540666968 16.49451689773315 13.91551452582317 H 0.0 **** 0.06
1350 H 131.3938693043514 15.744079427621983 15.056353622813674 H 0.0 **** 0.06
1351 C 112.73818246248777 40.96728665621363 118.59992325842302 C 0.0 **** -0.24
1352 H 112.30071647059967 40.30370007501169 117.85431599077651 H 0.0 **** 0.06
1353 H 113.40908899547827 41.673429128141464 118.10797186883417 H 0.0 **** 0.06
1354 H 113.29881156138529 40.37892379041094 119.32587848359242 H 0.0 **** 0.06
1355 H 111.94512713321078 41.514796786299144 119.11008772632874 H 0.0 **** 0.06
1356 C 135.9612579865385 137.88612688399365 126.52721247912689 C 0.0 **** -0.24
1357 H 135.80369642690033 137.02820809421831 125.8735041623084 H 0.0 **** 0.06
1358 H 135.00449075245706 138.3667814668155 126.73119651254046 H 0.0 **** 0.06
1359 H 136.62785529486175 138.59680559998614 126.03908377221194 H 0.0 **** 0.06
1360 H 136.4083376728202 137.55179101007056 127.46313508203389 H 0.0 **** 0.06
1361 C 84.67677747239247 145.7596120248062 139.3354640465016 C 0.0 **** -0.24
1362 H 85.41619176389273 145.19807093919957 138.7652755314628 H 0.0 **** 0.06
1363 H 83.67822456914783 145.397745862623 139.09056848961464 H 0.0 **** 0.06
1364 H 84.75231001085206 146.81848383249942 139.08510783746692 H 0.0 **** 0.06
1365 H 84.86123427180394 145.6244386355217 140.4013419516249 H 0.0 **** 0.06
1366 C 139.65966886299236 35.212180040282874 140.1019020202433 C 0.0 **** -0.24
1367 H 139.96235382252937 34.54827958310159 140.91140732684522 H 0.0 **** 0.06
1368 H 139.22807739217473 34.62291012743958 139.29222081262407 H 0.0 **** 0.06
1369 H 140.52896215341266 35.75477609419657 139.732589815947 H 0.0 **** 0.06
1370 H 138.91894761851978 35.920339732166795 140.4711494933392 H 0.0 **** 0.06
1371 C 33.73037502713011 85.25991954840396 136.13429927522785 C 0.0 **** -0.24
1372 H 33.4691802483802 85.02786489184379 137.16662033452496 H 0.0 **** 0.06
1373 H 34.69607813241768 84.81379060937078 135.89519185431453 H 0.0 **** 0.06
1374 H 33.78704148711745 86.3402336201915 136.00850891598026 H 0.0 **** 0.06
1375 H 32.96802645029207 84.85603540416429 135.46761560111275 H 0.0 **** 0.06
1376 C 75.01116156989866 156.34633319305243 99.75169793313981 C 0.0 **** -0.24
1377 H 75.79545302552503 155.64093249020132 100.02534296113072 H 0.0 **** 0.06
1378 H 74.24116782965021 156.35010495725638 100.52359642950131 H 0.0 **** 0.06
1379 H 74.57075854702751 156.04950073057614 98.79993035791293 H 0.0 **** 0.06
1380 H 75.43813508512744 157.34527940606964 99.65934017416208 H 0.0 **** 0.06
1381 C 112.84135720002467 38.10867953129316 49.39214912615975 C 0.0 **** -0.24
1382 H 111.83011118384772 38.31029607055497 49.74374134028142 H 0.0 **** 0.06
1383 H 113.4292828840378 39.02640221466628 49.430507434925346 H 0.0 **** 0.06
1384 H 112.8024017464509 37.74579854418198 48.36496865335887 H 0.0 **** 0.06
1385 H 113.30381739838364 37.353164984226964 50.027360265784964 H 0.0 **** 0.06
1386 C 99.17604209765466 34.81392988478379 137.08261431375965 C 0.0 **** -0.24
1387 H 98.29010141236131 34.977443111575894 136.46963930571155 H 0.0 **** 0.06
1388 H 98.88197604678606 34.38103662611917 138.03890007012785 H 0.0 **** 0.06
1389 H 99.67970071926163 35.76553355258089 137.25382856933504 H 0.0 **** 0.06
1390 H 99.8531516726324 34.13234724351156 136.56818592280536 H 0.0 **** 0.06
1391 C 142.56809725594906 136.3429477125247 127.43471790408711 C 0.0 **** -0.24
1392 H 143.62557799867497 136.19667305004643 127.21428183089165 H 0.0 **** 0.06
1393 H 141.98232350142405 135.57177006606486 126.93374382920143 H 0.0 **** 0.06
1394 H 142.25563830307573 137.3256033068352 127.08140467087594 H 0.0 **** 0.06
1395 H 142.40990280259058 136.27736482747466 128.51137674915276 H 0.0 **** 0.06
1396 C 90.54856965214213 1.8077114978761841 43.908595246705545 C 0.0 **** -0.24
1397 H 90.56052761303957 2.381314023429546 44.835112915472294 H 0.0 **** 0.06
1398 H 90.89099328000046 0.7918574293491005 44.105718115758194 H 0.0 **** 0.06
1399 H 91.20894808970004 2.2797823471673198 43.180845768876694 H 0.0 **** 0.06
1400 H 89.53346849240245 1.778591487587569 43.512075980355945 H 0.0 **** 0.06
1401 C 6.601405856754241 12.780730191868884 75.26215909759875 C 0.0 **** -0.24
1402 H 7.453598949273811 12.705892114476427 74.58546854743007 H 0.0 **** 0.06
1403 H 6.601414770145624 11.927067310413975 75.94122580570858 H 0.0 **** 0.06
1404 H 5.67823555200556 12.786862777098918 74.68380557625791 H 0.0 **** 0.06
1405 H 6.676001836333398 13.703863502275226 75.83763126136667 H 0.0 **** 0.06
1406 C 159.65420057663061 126.82959565893009 140.97699645903498 C 0.0 **** -0.24
1407 H 159.1849753776283 127.76400796668784 140.66978448851017 H 0.0 **** 0.06
1408 H 159.04526524263005 126.35357460454017 141.74576793347723 H 0.0 **** 0.06
1409 H 160.64759000312154 127.03597913159791 141.37644006168787 H 0.0 **** 0.06
1410 H 159.73988829445062 126.16572225291492 140.11658284910717 H 0.0 **** 0.06
1411 C 90.09789245357878 138.28222574205716 16.89823965281156 C 0.0 **** -0.24
1412 H 89.89083692695445 137.3355905637197 16.398446971313746 H 0.0 **** 0.06
1413 H 89.31082874816384 138.99795101908202 16.660393245627354 H 0.0 **** 0.06
1414 H 91.05850867360459 138.6699790555178 16.55748059371094 H 0.0 **** 0.06
1415 H 90.13270470765309 138.12364092233676 17.976134277215785 H 0.0 **** 0.06
1416 C 57.14588981048462 16.438946174767203 25.01661173440408 C 0.0 **** -0.24
1417 H 58.00554576639706 17.10193891065537 24.925397213172083 H 0.0 **** 0.06
1418 H 57.08373905603105 16.062920584544372 26.03771500504925 H 0.0 **** 0.06
1419 H 57.258290478464346 15.601554560628855 24.327064587728323 H 0.0 **** 0.06
1420 H 56.23624513787888 16.988292806876515 24.775392575202368 H 0.0 **** 0.06
1421 C 3.786573850062048 157.30092710515459 12.735511568193338 C 0.0 **** -0.24
1422 H 2.95532535776222 156.67070155294311 12.418990541102872 H 0.0 **** 0.06
1423 H 4.242763460702747 157.7662017381296 11.861266502520195 H 0.0 **** 0.06
1424 H 4.52769087928845 156.69050453901647 13.250666564359932 H 0.0 **** 0.06
1425 H 3.4194501557397246 158.07354769527913 13.410587455040961 H 0.0 **** 0.06
1426 C 94.21614605090154 131.79721279168146 132.05015243008114 C 0.0 **** -0.24
1427 H 94.93842987458646 131.42797581131128 131.32222318866832 H 0.0 **** 0.06
1428 H 94.74292082522088 132.1579135652217 132.9350994478507 H 0.0 **** 0.06
1429 H 93.54030371935362 130.99085561307578 132.33302177401328 H 0.0 **** 0.06
1430 H 93.64244465575385 132.614135507969 131.6110694349982 H 0.0 **** 0.06
1431 C 137.18631003330466 57.71352798523833 94.83619178182335 C 0.0 **** -0.24
1432 H 137.17926451088005 56.907660596410096 95.5704464945932 H 0.0 **** 0.06
1433 H 137.33320666180538 57.29469655946576 93.83930535194739 H 0.0 **** 0.06
1434 H 137.9979972607312 58.4044973242988 95.06360125794227 H 0.0 **** 0.06
1435 H 136.23483485611467 58.24428736465609 94.87099591765299 H 0.0 **** 0.06
1436 C 49.96892926103027 10.773311851734093 131.56327626171696 C 0.0 **** -0.24
1437 H 50.17568244658159 10.86494583362662 132.6295863438719 H 0.0 **** 0.06
1438 H 50.86818910725184 11.017096177753501 130.9975574372868 H 0.0 **** 0.06
1439 H 49.1682192352435 11.459525861904353 131.28853524757517 H 0.0 **** 0.06
1440 H 49.66468831622383 9.751127640123855 131.33931482476373 H 0.0 **** 0.06
1441 C 133.74797342869724 54.15243052910624 39.661691850864884 C 0.0 **** -0.24
1442 H 133.299534891049 54.7963759316833 38.904009790265974 H 0.0 **** 0.06
1443 H 133.16666147653862 54.21624041636548 40.582043195098464 H 0.0 **** 0.06
1444 H 134.77044991623836 54.477192227066965 39.85430941415578 H 0.0 **** 0.06
1445 H 133.75397341996663 53.12237010806605 39.305246363628385 H 0.0 **** 0.06
1446 C 69.76766182003891 153.9298088665222 99.27965138638234 C 0.0 **** -0.24
1447 H 70.4686425762807 154.75778655322915 99.18152524943238 H 0.0 **** 0.06
1448 H 69.08171483951449 153.93259390896395 98.4310013295858 H 0.0 **** 0.06
1449 H 69.20112753148719 154.04076236687962 100.20461738502414 H 0.0 **** 0.06
1450 H 70.31664250980282 152.9885194541779 99.30024973981205 H 0.0 **** 0.06
1451 C 110.05465042400215 56.36463312172714 84.78294484724537 C 0.0 **** -0.24
1452 H 110.09691045353998 55.8440573727959 83.82651825917164 H 0.0 **** 0.06
1453 H 110.62722004853362 55.80825183382012 85.52526671380271 H 0.0 **** 0.06
1454 H 109.01718074314417 56.442721894399114 85.10879247475532 H 0.0 **** 0.06
1455 H 110.47661807871782 57.3630308546669 84.67177338358532 H 0.0 **** 0.06
1456 C 117.80253144633184 94.4580438905636 162.08541888406546 C 0.0 **** -0.24
1457 H 118.68373212632048 94.24907575816093 162.69189603446506 H 0.0 **** 0.06
1458 H 117.34125303762434 95.38674806762094 162.42133500050807 H 0.0 **** 0.06
1459 H 117.0889725995487 93.64035629948424 162.1882470856717 H 0.0 **** 0.06
1460 H 118.09630192964391 94.55514349244633 161.0396911653078 H 0.0 **** 0.06
1461 C 54.79645204729708 98.02955616950183 35.52217325416832 C 0.0 **** -0.24
1462 H 55.557849249850676 97.70981799432388 36.233899794055745 H 0.0 **** 0.06
1463 H 55.2523386321152 98.17046597467936 34.54218667095452 H 0.0 **** 0.06
1464 H 54.356730561342545 98.96872229146604 35.85842743882132 H 0.0 **** 0.06
1465 H 54.019262638790565 97.26805660244338 35.456052955808374 H 0.0 **** 0.06
1466 C 39.99567762625749 156.61905045647185 14.486524175366355 C 0.0 **** -0.24
1467 H 39.1570355492036 157.13364872294588 14.017442147691668 H 0.0 **** 0.06
1468 H 40.637431418644766 157.3474769995384 14.982830247727009 H 0.0 **** 0.06
1469 H 40.567796304239764 156.08896895313953 13.724220617986958 H 0.0 **** 0.06
1470 H 39.61970786893326 155.90591467077456 15.219755333865322 H 0.0 **** 0.06
1471 C 16.796439404495743 161.38543536882094 26.282779288173685 C 0.0 **** -0.24
1472 H 17.09492207577867 161.71666018811334 27.277508937661423 H 0.0 **** 0.06
1473 H 16.310628816816518 160.4127604626794 26.354140542134985 H 0.0 **** 0.06
1474 H 17.677967548556012 161.30622875356727 25.646193618786924 H 0.0 **** 0.06
1475 H 16.102102852623062 162.1085369030871 25.853340329930802 H 0.0 **** 0.06
1476 C 93.55594057042362 139.1156404858931 154.74139683719557 C 0.0 **** -0.24
1477 H 92.53086468404234 139.0452572580482 155.10449251099217 H 0.0 **** 0.06
1478 H 93.6172884252674 139.8866180644833 153.97295237774006 H 0.0 **** 0.06
1479 H 93.85886094007365 138.15641709961275 154.3196627386283 H 0.0 **** 0.06
1480 H 94.21784026644991 139.37346260228077 155.56887519997932 H 0.0 **** 0.06
1481 C 100.5337959764611 41.721946904643644 60.86905353772869 C 0.0 **** -0.24
1482 H 99.71311512368948 42.387403055525354 60.6005895462834 H 0.0 **** 0.06
1483 H 101.4185703714883 41.985656327773 60.29063549620108 H 0.0 **** 0.06
1484 H 100.25172221803297 40.69097688527782 60.65337531344218 H 0.0 **** 0.06
1485 H 100.75063091544038 41.824086318045886 61.93237287134605 H 0.0 **** 0.06
1486 C 35.687721673700366 147.38409631756852 21.21242556313004 C 0.0 **** -0.24
1487 H 34.841830781509856 147.38926202222882 20.523430036712654 H 0.0 **** 0.06
1488 H 36.33136981665784 148.23806068829828 21.003007903602395 H 0.0 **** 0.06
1489 H 36.25382374477374 146.46159473134549 21.084671442310906 H 0.0 **** 0.06
1490 H 35.32087271029779 147.4474278380279 22.23684335388728 H 0.0 **** 0.06
1491 C 83.76959564530398 107.74851598829235 119.79371748760633 C 0.0 **** -0.24
1492 H 84.68888460082786 107.19000569682558 119.62042324379632 H 0.0 **** 0.06
1493 H 83.20409367786215 107.27537957726858 120.59684719964744 H 0.0 **** 0.06
1494 H 83.17185077984715 107.7564366343189 118.88232504088205 H 0.0 **** 0.06
1495 H 84.01465754709619 108.77206787710728 120.07614098561808 H 0.0 **** 0.06
1496 C 5.987905689231923 46.67196626371555 51.5493247608609 C 0.0 **** -0.24
1497 H 6.109427747444101 46.46921157820054 52.61368175069656 H 0.0 **** 0.06
1498 H 6.792476592224602 47.325991898133566 51.21038369857149 H 0.0 **** 0.06
1499 H 5.02791775680668 47.15837550911584 51.3796838557457 H 0.0 **** 0.06
1500 H 6.023942290009934 45.73422081599534 50.99473689718485 H 0.0 **** 0.06
1501 C 7.299416308142355 63.402051010253444 157.60665940613404 C 0.0 **** -0.24
1502 H 6.69583015575455 62.82683499513638 156.90448054515002 H 0.0 **** 0.06
1503 H 8.306453720418773 63.52277400980387 157.20608669688687 H 0.0 **** 0.06
1504 H 7.34752491349775 62.8757391839375 158.56014474428162 H 0.0 **** 0.06
1505 H 6.847099156823504 64.38349294817338 157.75491534776438 H 0.0 **** 0.06
1506 C 42.9905973466864 120.31407984782322 78.22939134564598 C 0.0 **** -0.24
1507 H 42.16995684259703 119.64606676794335 78.489813169327 H 0.0 **** 0.06
1508 H 43.84847191381445 120.10142674873973 78.86670972728649 H 0.0 **** 0.06
1509 H 42.67752697850317 121.34837961574826 78.37453890270433 H 0.0 **** 0.06
1510 H 43.26508833284109 120.16080162448364 77.18547211701349 H 0.0 **** 0.06
1511 C 147.22949500067483 35.421783627996135 131.36569401921926 C 0.0 **** -0.24
1512 H 146.53323778073474 35.97565496933787 130.73620750805722 H 0.0 **** 0.06
1513 H 148.15261308260582 35.99176524347604 131.474431516428 H 0.0 **** 0.06
1514 H 147.44789261031863 34.45816902824646 130.90526243086438 H 0.0 **** 0.06
1515 H 146.78301501340596 35.26242716991791 132.34772916483283 H 0.0 **** 0.06
1516 C 65.09785407806368 73.06819531602137 119.48215184312042 C 0.0 **** -0.24
1517 H 65.11026874833837 72.03262730713406 119.82017786585783 H 0.0 **** 0.06
1518 H 64.1617511146934 73.53799508763854 119.78571452876335 H 0.0 **** 0.06
1519 H 65.18305220346515 73.09654498223347 118.39568626940991 H 0.0 **** 0.06
1520 H 65.93561528120391 73.60557139694141 119.92634545487576 H 0.0 **** 0.06
1521 C 157.6578845134419 31.985095461374087 61.12508468050231 C 0.0 **** -0.24
1522 H 157.24041653230188 30.982704000445146 61.21263271509392 H 0.0 **** 0.06
1523 H 158.4717918691832 31.977352728410395 60.399381053728206 H 0.0 **** 0.06
1524 H 158.03845109053614 32.30642414620362 62.0942501928682 H 0.0 **** 0.06
1525 H 156.880882590604 32.674609463479015 60.7928507988251 H 0.0 **** 0.06
1526 C 144.6486406073518 33.32043915300821 78.2646247357979 C 0.0 **** -0.24
1527 H 144.3696262297459 33.80338995069816 77.32814443193935 H 0.0 **** 0.06
1528 H 144.73352044751573 34.07263921345191 79.05020439398572 H 0.0 **** 0.06
1529 H 145.60629544561485 32.813789419155725 78.14139267655392 H 0.0 **** 0.06
1530 H 143.8845335021466 32.59276899147147 78.53973989778176 H 0.0 **** 0.06
1531 C 159.9360016346617 37.95030825578699 60.625589176343055 C 0.0 **** -0.24
1532 H 160.80393807274504 37.47078417639055 61.07614971288959 H 0.0 **** 0.06
1533 H 160.03752880863271 39.03252107397573 60.704661891088435 H 0.0 **** 0.06
1534 H 159.0330108862449 37.63140228143676 61.14491229743372 H 0.0 **** 0.06
1535 H 159.8698654945543 37.66745456112346 59.57462691325793 H 0.0 **** 0.06
1536 C 8.9466290960926 108.31352766047814 150.09620021318534 C 0.0 **** -0.24
1537 H 8.702778993854324 107.38558788367925 150.61349099685054 H 0.0 **** 0.06
1538 H 9.45009613999057 108.9913838933374 150.7851208932542 H 0.0 **** 0.06
1539 H 8.029739418462583 108.7782498267782 149.73286221601882 H 0.0 **** 0.06
1540 H 9.603275031688888 108.09676180940664 149.2536134000699 H 0.0 **** 0.06
1541 C 96.67528631424179 136.09469615621626 60.05438891192466 C 0.0 **** -0.24
1542 H 95.88791898818458 135.64876862535476 60.66230353975624 H 0.0 **** 0.06
1543 H 97.47308034907886 135.36658216608248 59.90269317179286 H 0.0 **** 0.06
1544 H 97.0761827551546 136.97050226647673 60.56400792412626 H 0.0 **** 0.06
1545 H 96.26477488383199 136.3914994194003 59.08968687553573 H 0.0 **** 0.06
1546 C 99.08081630306017 150.946120974879 22.839022978268474 C 0.0 **** -0.24
1547 H 99.91030449249885 150.2625506336812 23.017030716968634 H 0.0 **** 0.06
1548 H 98.56397461882213 150.66055558699946 21.92268682493227 H 0.0 **** 0.06
1549 H 99.46247990634902 151.96233350573658 22.73853490661915 H 0.0 **** 0.06
1550 H 98.3856721328745 150.90109173514483 23.6775048279531 H 0.0 **** 0.06
1551 C 28.19355927640595 95.12031587773167 116.29586362234107 C 0.0 **** -0.24
1552 H 28.430987201451273 94.36187538245473 117.04176968060088 H 0.0 **** 0.06
1553 H 27.534070325651555 95.86858520420971 116.73564674958459 H 0.0 **** 0.06
1554 H 27.69533791667112 94.64998194480604 115.44726809564307 H 0.0 **** 0.06
1555 H 29.113591439207596 95.59766015595761 115.95779686774335 H 0.0 **** 0.06
1556 C 28.183004883662818 14.135655529336617 60.06637423945378 C 0.0 **** -0.24
1557 H 28.42346417851678 14.936471935827932 60.764873512271876 H 0.0 **** 0.06
1558 H 27.615792841028338 14.543416289335049 59.22872123000148 H 0.0 **** 0.06
1559 H 27.586750870220726 13.378480945513552 60.57423407866328 H 0.0 **** 0.06
1560 H 29.10448409046728 13.685854407185026 59.69734868012212 H 0.0 **** 0.06
1561 C 66.51868404713368 78.32704908917276 134.85191959860038 C 0.0 **** -0.24
1562 H 67.55668945984145 78.65740105186921 134.7989739780843 H 0.0 **** 0.06
1563 H 66.23235727840992 77.87683037862436 133.90150235013056 H 0.0 **** 0.06
1564 H 65.87600838667795 79.18284490842422 135.0581679021843 H 0.0 **** 0.06
1565 H 66.41189557037794 77.59191717451395 135.64971289956566 H 0.0 **** 0.06
1566 C 161.8201231631353 33.924311370194005 141.8976713033153 C 0.0 **** -0.24
1567 H 162.26880320722793 33.10060838593509 142.45278882533034 H 0.0 **** 0.06
1568 H 162.31889326142962 34.02605459895392 140.93342518107784 H 0.0 **** 0.06
1569 H 161.93397558091306 34.84839327537111 142.4644085570361 H 0.0 **** 0.06
1570 H 160.76156667982863 33.72225536197914 141.7407371337945 H 0.0 **** 0.06
1571 C 87.48490842529543 50.741419208765706 110.86370677885702 C 0.0 **** -0.24
1572 H 87.33795490457021 50.46897193970386 109.81955020851817 H 0.0 **** 0.06
1573 H 87.56992276721428 51.825326932737084 110.94793560975725 H 0.0 **** 0.06
1574 H 88.3963507095333 50.27546133762041 111.236722927311 H 0.0 **** 0.06
1575 H 86.63371979027227 50.397472561303005 111.45255184439355 H 0.0 **** 0.06
1576 C 51.73405887475569 109.17082218445864 25.944289525713884 C 0.0 **** -0.24
1577 H 51.33538076959094 109.9723603927165 25.323480306927138 H 0.0 **** 0.06
1578 H 52.787730175664294 109.36023112135828 26.15036697279544 H 0.0 **** 0.06
1579 H 51.631126496536794 108.21974993711083 25.42100816015551 H 0.0 **** 0.06
1580 H 51.18104433066658 109.13010333411046 26.88291765087456 H 0.0 **** 0.06
1581 C 78.60042499756264 133.38536500379521 17.746301388504293 C 0.0 **** -0.24
1582 H 79.19059752348916 132.8665741407143 18.501183671756678 H 0.0 **** 0.06
1583 H 78.41202593523059 134.40839332864329 18.07129474797057 H 0.0 **** 0.06
1584 H 77.65080195789807 132.86671488128064 17.608460757502314 H 0.0 **** 0.06
1585 H 79.14681622509605 133.39781878039233 16.804076183428236 H 0.0 **** 0.06
1586 C 61.89492631565366 52.67192616422416 12.382320498701603 C 0.0 **** -0.24
1587 H 62.04042459025817 51.59711550641907 12.497607989124361 H 0.0 **** 0.06
1588 H 60.866391727783196 52.927652491823096 12.637174391526997 H 0.0 **** 0.06
1589 H 62.097775832384286 52.9572171941885 11.350644231040604 H 0.0 **** 0.06
1590 H 62.576478938627076 53.20285860883064 13.04716456080024 H 0.0 **** 0.06
1591 C 75.91655538421594 86.04142836241687 124.05751405996477 C 0.0 **** -0.24
1592 H 76.45019627004328 85.62644122776808 123.20262521894699 H 0.0 **** 0.06
1593 H 75.63865619084785 85.23629410787694 124.7375520889949 H 0.0 **** 0.06
1594 H 75.01815576139569 86.55208847837477 123.71178700130173 H 0.0 **** 0.06
1595 H 76.56037643125353 86.75158551601453 124.5776882346014 H 0.0 **** 0.06
1596 C 59.10104446783312 124.57911189384686 52.28012256151942 C 0.0 **** -0.24
1597 H 59.01695187180762 124.97217489248473 53.29299459268715 H 0.0 **** 0.06
1598 H 59.61981144871251 125.30273518217197 51.65064417512998 H 0.0 **** 0.06
1599 H 58.10355224684224 124.39685029230043 51.87819485224766 H 0.0 **** 0.06
1600 H 59.66172236329015 123.64421775301042 52.298208947115256 H 0.0 **** 0.06
1601 C 139.40196880418603 127.85912516877161 128.58825302492338 C 0.0 **** -0.24
1602 H 139.7400793703344 128.17085964049411 129.576637428443 H 0.0 **** 0.06
1603 H 138.37728804004027 127.49393135770487 128.65364150317643 H 0.0 **** 0.06
1604 H 140.04897701187627 127.06482064733405 128.2170986932116 H 0.0 **** 0.06
1605 H 139.44291197656165 128.7088774314331 127.90600700021801 H 0.0 **** 0.06
1606 C 107.93118454326338 105.57568102354634 113.90959930709894 C 0.0 **** -0.24
1607 H 108.45308364144293 105.23362527671628 113.01640222609595 H 0.0 **** 0.06
1608 H 107.12867465322799 104.87713572367619 114.15048362372528 H 0.0 **** 0.06
1609 H 107.5101273492786 106.56438188093443 113.72808815118526 H 0.0 **** 0.06
1610 H 108.63178210691376 105.62600313475065 114.7428199144193 H 0.0 **** 0.06
1611 C 136.90213528739423 109.0810471296831 133.11344801628053 C 0.0 **** -0.24
1612 H 136.11101526753964 109.73424949998758 133.4801094402136 H 0.0 **** 0.06
1613 H 137.48065204562852 108.70363432064607 133.9567770117947 H 0.0 **** 0.06
1614 H 137.5556169881461 109.64324631467514 132.44540038469484 H 0.0 **** 0.06
1615 H 136.46088625114044 108.24465159607925 132.57093564809327 H 0.0 **** 0.06
1616 C 97.61035658868593 8.831869138385912 61.603249561659425 C 0.0 **** -0.24
1617 H 97.14128316201595 7.850364151158971 61.52952739459346 H 0.0 **** 0.06
1618 H 97.9933423023358 9.124832910750484 60.62574302725892 H 0.0 **** 0.06
1619 H 98.43220180006085 8.789027474996232 62.31796691546617 H 0.0 **** 0.06
1620 H 96.87353864019377 9.561558563385375 61.939672691925125 H 0.0 **** 0.06
1621 C 45.36439942691413 5.720978767612088 130.87963327707433 C 0.0 **** -0.24
1622 H 44.30220489655261 5.658254795369437 131.11501663169702 H 0.0 **** 0.06
1623 H 45.4978354084315 6.25193337786331 129.93728361495687 H 0.0 **** 0.06
1624 H 45.77652175618634 4.715265104418627 130.79192868032703 H 0.0 **** 0.06
1625 H 45.88103469861133 6.257159663634717 131.67582226545971 H 0.0 **** 0.06
1626 C 19.39672803030934 139.99047612668653 58.63581838308046 C 0.0 **** -0.24
1627 H 18.739649995809586 140.53141513113331 57.95555352545618 H 0.0 **** 0.06
1628 H 19.885993226038053 139.1785884153025 58.09848911439168 H 0.0 **** 0.06
1629 H 18.809246960548293 139.5805223720422 59.45759072370535 H 0.0 **** 0.06
1630 H 20.150314959713533 140.67153194448983 59.031389580128874 H 0.0 **** 0.06
1631 C 121.53123240827387 81.04596399187926 117.25838773461945 C 0.0 **** -0.24
1632 H 122.26342571369554 80.4199471059631 116.74711802385491 H 0.0 **** 0.06
1633 H 120.5711196115671 80.97144182321028 116.74861553667319 H 0.0 **** 0.06
1634 H 121.87007767762827 82.0815834321296 117.24983828828829 H 0.0 **** 0.06
1635 H 121.42293675462281 80.70792629127982 118.28980591952367 H 0.0 **** 0.06
1636 C 33.36357122421532 155.5589198227418 73.72663992477885 C 0.0 **** -0.24
1637 H 33.89179625487202 155.33736020597775 72.80027743986653 H 0.0 **** 0.06
1638 H 32.52759946553573 154.86890110442135 73.8422134939762 H 0.0 **** 0.06
1639 H 32.99038203937823 156.58217751525558 73.69605630859678 H 0.0 **** 0.06
1640 H 34.04686502198126 155.44604451627924 74.56943032701543 H 0.0 **** 0.06
1641 C 10.33790579903814 97.5978423812368 69.8068149574246 C 0.0 **** -0.24
1642 H 9.735277498824928 96.98053287971325 70.47405854680629 H 0.0 **** 0.06
1643 H 10.390743119411809 98.61333228742814 70.20057802430622 H 0.0 **** 0.06
1644 H 9.881967559764718 97.61450669057956 68.8170576796783 H 0.0 **** 0.06
1645 H 11.343501443342603 97.18223867644232 69.7371167659696 H 0.0 **** 0.06
1646 C 90.65018568326153 126.42763787668457 50.10282540891903 C 0.0 **** -0.24
1647 H 90.28726571504092 125.49637613874276 50.5354713020665 H 0.0 **** 0.06
1648 H 90.72247704155137 127.18653099436321 50.88242407234259 H 0.0 **** 0.06
1649 H 89.9579675724722 126.76454538411079 49.3306866275839 H 0.0 **** 0.06
1650 H 91.63421909957435 126.2636281234162 49.66216121515524 H 0.0 **** 0.06
1651 C 130.37515243112804 92.6165583777437 114.95518409120137 C 0.0 **** -0.24
1652 H 130.3133089578753 92.342304949513 113.90147571825784 H 0.0 **** 0.06
1653 H 130.09342483288364 91.76159568672784 115.57018102360664 H 0.0 **** 0.06
1654 H 129.69633370387683 93.4467523790622 115.1545655395521 H 0.0 **** 0.06
1655 H 131.39523340280073 92.91635295411226 115.19276111530232 H 0.0 **** 0.06
1656 C 94.57267651953521 121.76078262089254 95.55490874586792 C 0.0 **** -0.24
1657 H 93.88092646119449 122.23109217430485 96.25497494842216 H 0.0 **** 0.06
1658 H 94.01658533337648 121.37193977179794 94.70161295846287 H 0.0 **** 0.06
1659 H 95.09298882218592 120.94295021541518 96.05263667978016 H 0.0 **** 0.06
1660 H 95.29802389560501 122.49727642981989 95.21088422172355 H 0.0 **** 0.06
1661 C 120.48571672010564 99.19983418348369 161.53544952781428 C 0.0 **** -0.24
1662 H 119.72807148602516 99.17374689341705 162.3188191830282 H 0.0 **** 0.06
1663 H 121.17895628545446 98.37055422213888 161.67292490379438 H 0.0 **** 0.06
1664 H 121.03031258225155 100.14236160954306 161.58910812924807 H 0.0 **** 0.06
1665 H 120.00325169245454 99.11446578982736 160.561730064615 H 0.0 **** 0.06
1666 C 72.8262017060589 25.08379164921874 36.201346893110326 C 0.0 **** -0.24
1667 H 73.20729551087226 25.047619693252322 37.222503097428984 H 0.0 **** 0.06
1668 H 73.45065315317683 25.74879747105328 35.60440006501632 H 0.0 **** 0.06
1669 H 71.8012637684032 25.455979434742225 36.209369477272475 H 0.0 **** 0.06
1670 H 72.84573872559417 24.08268412629647 35.77134471852756 H 0.0 **** 0.06
1671 C 48.53114755135192 69.7784986099604 120.50093146428691 C 0.0 **** -0.24
1672 H 49.008278230524695 70.46629334410241 119.80201114846813 H 0.0 **** 0.06
1673 H 49.00515297002676 69.86697725320663 121.47870048707935 H 0.0 **** 0.06
1674 H 48.638173192149836 68.75736243059154 120.13602017628065 H 0.0 **** 0.06
1675 H 47.47265056455811 70.02501675584664 120.58660994146177 H 0.0 **** 0.06
1676 C 24.805957519751445 86.34391446773293 100.16351517852823 C 0.0 **** -0.24
1677 H 24.81779331474621 85.51671219730491 99.4529370965667 H 0.0 **** 0.06
1678 H 25.540593161450772 86.15945756714491 100.94791049242835 H 0.0 **** 0.06
1679 H 23.81397034926306 86.42720575257994 100.60699669761564 H 0.0 **** 0.06
1680 H 25.051266475884972 87.27056399454887 99.64614879117158 H 0.0 **** 0.06
1681 C 135.58258739143875 121.97299150791818 153.20572498782204 C 0.0 **** -0.24
1682 H 134.7490451319276 121.70395513650578 152.55647957489944 H 0.0 **** 0.06
1683 H 136.5126338827994 121.60055441959457 152.77491408844526 H 0.0 **** 0.06
1684 H 135.4345239722911 121.52973172248193 154.1903019696413 H 0.0 **** 0.06
1685 H 135.63414419342766 123.05778386264296 153.29837646720793 H 0.0 **** 0.06
1686 C 2.448956527633129 84.45579944694848 74.62342930317396 C 0.0 **** -0.24
1687 H 2.0333322384358326 83.5130213792627 74.98027359087308 H 0.0 **** 0.06
1688 H 2.3983700594884 85.19914632978868 75.4192504436092 H 0.0 **** 0.06
1689 H 1.8745318800472148 84.80288832214494 73.76397044837125 H 0.0 **** 0.06
1690 H 3.48765213326584 84.3067012611538 74.3306256351043 H 0.0 **** 0.06
1691 C 120.02264714041286 39.04409592571858 52.2431424345539 C 0.0 **** -0.24
1692 H 120.0989616583121 38.34425876177161 51.4112963682786 H 0.0 **** 0.06
1693 H 120.51605866771962 39.978527346500485 51.976973651280176 H 0.0 **** 0.06
1694 H 120.50281871662611 38.61638402460916 53.123548964809956 H 0.0 **** 0.06
1695 H 118.97153842696409 39.23650128650135 52.460911901865785 H 0.0 **** 0.06
1696 C 57.72684735000874 28.0867839528335 157.47732886489075 C 0.0 **** -0.24
1697 H 56.802264539962636 27.53706209891805 157.65652819112734 H 0.0 **** 0.06
1698 H 58.22396667300839 28.280006668954364 158.42760471853148 H 0.0 **** 0.06
1699 H 57.49805299774947 29.032712053535136 156.9863675317618 H 0.0 **** 0.06
1700 H 58.382961557041 27.494976906062853 156.83824557280764 H 0.0 **** 0.06
1701 C 37.19872298854746 122.08224824266566 82.58557108889158 C 0.0 **** -0.24
1702 H 36.600337981495315 122.85064159773418 82.097654247143 H 0.0 **** 0.06
1703 H 36.609054974339784 121.60453651010488 83.36854044673817 H 0.0 **** 0.06
1704 H 38.08698973703268 122.537527657324 83.02459696781159 H 0.0 **** 0.06
1705 H 37.499765993445195 121.3356445548086 81.85048884378506 H 0.0 **** 0.06
1706 C 34.351093628028764 127.32939271618943 1.4584680209384189 C 0.0 **** -0.24
1707 H 33.924192232632294 127.80649796283566 0.5756369650572495 H 0.0 **** 0.06
1708 H 33.59364822888507 127.26687447690949 2.2393916881543987 H 0.0 **** 0.06
1709 H 35.19505021417797 127.91770862212218 1.8168302569311123 H 0.0 **** 0.06
1710 H 34.690682942999345 126.32672646275552 1.1999388754795532 H 0.0 **** 0.06
1711 C 114.99464233443715 53.16205307718107 116.32101717776646 C 0.0 **** -0.24
1712 H 115.0382752121364 52.145326961007825 115.92953658253123 H 0.0 **** 0.06
1713 H 114.73297609073575 53.132190603593656 117.37911211223366 H 0.0 **** 0.06
1714 H 114.23956215580313 53.72925650613598 115.77576945253071 H 0.0 **** 0.06
1715 H 115.96658826643417 53.6396782248448 116.20038485619492 H 0.0 **** 0.06
1716 C 147.9042101067297 17.385296038581743 142.92553383603234 C 0.0 **** -0.24
1717 H 147.07399698333037 17.945690511045456 142.495452371871 H 0.0 **** 0.06
1718 H 148.56892414143726 17.050409136198176 142.12838459593752 H 0.0 **** 0.06
1719 H 147.51732995611872 16.520152591559636 143.46376744078015 H 0.0 **** 0.06
1720 H 148.45658934603244 18.024931915523617 143.61453093554093 H 0.0 **** 0.06
1721 C 12.6107746854033 5.806163921841119 136.04275758104836 C 0.0 **** -0.24
1722 H 11.923443358065526 6.577022505128582 136.39347911409038 H 0.0 **** 0.06
1723 H 12.40299157288905 4.8707314286464225 136.56388437502437 H 0.0 **** 0.06
1724 H 13.63633975494622 6.114942289188662 136.2444406365982 H 0.0 **** 0.06
1725 H 12.477992282186165 5.6624588239535 134.97104656764088 H 0.0 **** 0.06
1726 C 87.68125132762722 27.337870997982066 28.777750540540225 C 0.0 **** -0.24
1727 H 88.43701746703191 27.877577757605366 29.349113854721544 H 0.0 **** 0.06
1728 H 88.05111853298894 26.339724267488577 28.5404400891735 H 0.0 **** 0.06
1729 H 87.47062699546909 27.87719111294885 27.85458151965654 H 0.0 **** 0.06
1730 H 86.76947555363093 27.256658669212413 29.368427536129445 H 0.0 **** 0.06
1731 C 51.56399850583041 105.6595790963492 103.84184571306199 C 0.0 **** -0.24
1732 H 51.54284830394883 106.72329880839033 103.60579723093358 H 0.0 **** 0.06
1733 H 51.41017324446648 105.52304498089325 104.91310158083277 H 0.0 **** 0.06
1734 H 52.53102203813907 105.24426949163345 103.55764633821883 H 0.0 **** 0.06
1735 H 50.77310007637254 105.15025183701516 103.29288285590036 H 0.0 **** 0.06
1736 C 39.28438023087716 135.42456290254904 70.34642492561764 C 0.0 **** -0.24
1737 H 39.31654472232411 135.24967072967314 71.42143702054278 H 0.0 **** 0.06
1738 H 38.31722718209997 135.84929519565344 70.07618181872863 H 0.0 **** 0.06
1739 H 39.42501951819361 134.47944179838134 69.82143010483651 H 0.0 **** 0.06
1740 H 40.077704781202556 136.11785709548295 70.06670331273762 H 0.0 **** 0.06
1741 C 59.065253130360915 88.12326884447884 91.54872434762598 C 0.0 **** -0.24
1742 H 60.080841495878715 88.0072749628722 91.17199830954566 H 0.0 **** 0.06
1743 H 58.60631024888315 87.14084984347909 91.66531436500162 H 0.0 **** 0.06
1744 H 58.48236789885223 88.71622361386642 90.84440177685684 H 0.0 **** 0.06
1745 H 59.09188053064359 88.62894432197191 92.51407876734683 H 0.0 **** 0.06
1746 C 31.747307064031588 99.7064711340326 15.973996772908471 C 0.0 **** -0.24
1747 H 31.219037728418584 100.65885997914319 15.955427899982986 H 0.0 **** 0.06
1748 H 31.057363400961947 98.91399933297885 16.265652515611805 H 0.0 **** 0.06
1749 H 32.565695386751 99.7592808190733 16.6923403956293 H 0.0 **** 0.06
1750 H 32.14754627243346 99.49241071527914 14.98234380542413 H 0.0 **** 0.06
1751 C 46.48433196026106 3.8683105954069674 87.75187809957293 C 0.0 **** -0.24
1752 H 47.04666769413984 3.0969628896864094 88.27763382286435 H 0.0 **** 0.06
1753 H 46.05858100312746 4.564270695305595 88.47519928642987 H 0.0 **** 0.06
1754 H 45.68108377707951 3.4044757907183794 87.17818259883194 H 0.0 **** 0.06
1755 H 47.149698686883596 4.40606591642802 87.07608878011575 H 0.0 **** 0.06
1756 C 144.62637666188135 49.571662680545614 87.41011040656994 C 0.0 **** -0.24
1757 H 144.54937304361226 50.65651477306017 87.33468992716195 H 0.0 **** 0.06
1758 H 145.39779847862167 49.21398942132021 86.72759146991999 H 0.0 **** 0.06
1759 H 143.66970231629057 49.12023780813712 87.14689444443593 H 0.0 **** 0.06
1760 H 144.88935199629086 49.29771302144215 88.43174263427609 H 0.0 **** 0.06
1761 C 144.87482261954554 132.1716220098559 79.29971808632524 C 0.0 **** -0.24
1762 H 144.0757022181836 131.49021955083546 79.58892749467043 H 0.0 **** 0.06
1763 H 144.45996817892666 133.16264100587006 79.11638780945543 H 0.0 **** 0.06
1764 H 145.35432017333653 131.8046946218596 78.39263527801086 H 0.0 **** 0.06
1765 H 145.6112791780908 132.22877714315513 80.10195054485007 H 0.0 **** 0.06
1766 C 63.73095250393348 36.84844264210534 43.21607072733758 C 0.0 **** -0.24
1767 H 63.0205222966855 36.36879907841717 42.542736612853204 H 0.0 **** 0.06
1768 H 64.54082470947073 36.15522377693452 43.44426688013736 H 0.0 **** 0.06
1769 H 63.222343842039535 37.13034634258963 44.138242296086474 H 0.0 **** 0.06
1770 H 64.13873117444984 37.7396580258694 42.73912466202344 H 0.0 **** 0.06
1771 C 92.60376735654518 44.9551754779593 21.14235527966929 C 0.0 **** -0.24
1772 H 91.9835212193175 45.77050284806364 20.767979919161952 H 0.0 **** 0.06
1773 H 93.0149742953182 44.39696479375516 20.300873513992656 H 0.0 **** 0.06
1774 H 91.99790086076122 44.291145430861604 21.75878592343028 H 0.0 **** 0.06
1775 H 93.4176520228568 45.36394108775238 21.740546101057383 H 0.0 **** 0.06
1776 C 47.416912119524824 83.07971707843694 96.10728847742132 C 0.0 **** -0.24
1777 H 48.07737759790447 82.21578328685057 96.17852469373184 H 0.0 **** 0.06
1778 H 46.45417909668777 82.83951947066174 96.55950426710189 H 0.0 **** 0.06
1779 H 47.27140253822307 83.3402249392078 95.05930543934261 H 0.0 **** 0.06
1780 H 47.86450638001145 83.92353297462145 96.633208616851 H 0.0 **** 0.06
1781 C 110.26680540416487 150.08230391095347 162.63585108510557 C 0.0 **** -0.24
1782 H 109.65740760945562 150.7322722005761 162.00794551431986 H 0.0 **** 0.06
1783 H 111.15783176015577 150.62209102526234 162.9609046902964 H 0.0 **** 0.06
1784 H 110.56364565957318 149.20175270476588 162.06655654251438 H 0.0 **** 0.06
1785 H 109.68982004781321 149.77473724275836 163.50765409175838 H 0.0 **** 0.06
1786 C 42.111431805177176 72.50892175365416 143.6222780808405 C 0.0 **** -0.24
1787 H 41.08103686443849 72.68445981668374 143.93446002659402 H 0.0 **** 0.06
1788 H 42.76933241491483 72.57599606140352 144.488274418071 H 0.0 **** 0.06
1789 H 42.39993965772584 73.26019164141447 142.88709672113686 H 0.0 **** 0.06
1790 H 42.19218908961011 71.51629235018493 143.17922618193734 H 0.0 **** 0.06
1791 C 157.61980758663324 99.05443636684862 19.101945356145144 C 0.0 **** -0.24
1792 H 157.3636532536549 98.08545263397676 18.67187515098435 H 0.0 **** 0.06
1793 H 157.1649783310962 99.14461495382386 20.08868850591525 H 0.0 **** 0.06
1794 H 157.2466994017865 99.84760109359544 18.454582371934073 H 0.0 **** 0.06
1795 H 158.70289664636726 99.13674395424192 19.191261634347107 H 0.0 **** 0.06
1796 C 142.57405328548424 96.90125338816375 131.62611640476274 C 0.0 **** -0.24
1797 H 142.61313626346234 97.5559806487515 130.7558712821286 H 0.0 **** 0.06
1798 H 143.37394090377205 97.16732335747125 132.31730120850517 H 0.0 **** 0.06
1799 H 142.69860685925664 95.86582688792276 131.30664766851297 H 0.0 **** 0.06
1800 H 141.6116306894123 97.01454043751576 132.12365293871 H 0.0 **** 0.06
1801 C 136.100472004759 117.03116907269282 120.6183506043788 C 0.0 **** -0.24
1802 H 136.65920164102496 116.16353499956784 120.96837509778891 H 0.0 **** 0.06
1803 H 135.90029422728355 116.92712054898516 119.55119753820844 H 0.0 **** 0.06
1804 H 136.68608032440193 117.93372660874815 120.79114998226328 H 0.0 **** 0.06
1805 H 135.15747662023097 117.10003904336452 121.16078815047763 H 0.0 **** 0.06
1806 C 130.03073860310246 137.23731149058625 99.00718000946932 C 0.0 **** -0.24
1807 H 130.20170155813068 137.48937313386273 100.05345790398391 H 0.0 **** 0.06
1808 H 130.47195626271477 138.00683382915477 98.37216720420119 H 0.0 **** 0.06
1809 H 128.95895756511234 137.18008188089615 98.81678820709135 H 0.0 **** 0.06
1810 H 130.49129102203645 136.27520955511727 98.7861638434128 H 0.0 **** 0.06
1811 C 72.00383883057816 35.868898395388285 100.77400214572819 C 0.0 **** -0.24
1812 H 71.91057350829823 35.083801198186094 101.52534086514217 H 0.0 **** 0.06
1813 H 72.9102429387555 35.705356161060834 100.1900865512462 H 0.0 **** 0.06
1814 H 72.05883861855702 36.83937661313628 101.26758690995305 H 0.0 **** 0.06
1815 H 71.13666305791513 35.844649598206246 100.11449929231824 H 0.0 **** 0.06
1816 C 79.50123802584551 117.01239760605267 92.85629026167277 C 0.0 **** -0.24
1817 H 80.35818971093948 116.50754859120315 93.30079234137142 H 0.0 **** 0.06
1818 H 79.05435707785722 116.36905206292002 92.09784856429292 H 0.0 **** 0.06
1819 H 79.82678734225607 117.94525142706541 92.39626391603224 H 0.0 **** 0.06
1820 H 78.76452582891079 117.22693624077166 93.63066108928388 H 0.0 **** 0.06
1821 C 92.74801281978684 57.1431594605576 40.95219854721698 C 0.0 **** -0.24
1822 H 92.98847219652113 58.05302002546672 40.40150087916106 H 0.0 **** 0.06
1823 H 91.85790485414945 56.683078261646514 40.52273496902839 H 0.0 **** 0.06
1824 H 92.56134510725143 57.39140683806275 41.99745702662554 H 0.0 **** 0.06
1825 H 93.58433495130765 56.448280109683736 40.88740821378791 H 0.0 **** 0.06
1826 C 66.29580801784685 3.9465550846881 37.474843846252156 C 0.0 **** -0.24
1827 H 65.73384577970064 3.098799663163902 37.08073206544577 H 0.0 **** 0.06
1828 H 66.44682014599879 4.680836160140899 36.68414702236589 H 0.0 **** 0.06
1829 H 67.26268141568659 3.6012067274947697 37.84107629248808 H 0.0 **** 0.06
1830 H 65.73863904481152 4.401903162348077 38.29403292218706 H 0.0 **** 0.06
1831 C 73.71167550345812 40.07674866423736 23.87564366707511 C 0.0 **** -0.24
1832 H 74.63581572608551 40.08203612158748 23.299630056298042 H 0.0 **** 0.06
1833 H 72.92590693889434 39.58914162684201 23.296710109592084 H 0.0 **** 0.06
1834 H 73.41576251089317 41.10161121736226 24.097603293864267 H 0.0 **** 0.06
1835 H 73.86651211980721 39.53381268200802 24.80739414947476 H 0.0 **** 0.06
1836 C 69.00398094881723 22.943807785372663 104.60049672823425 C 0.0 **** -0.24
1837 H 69.90085711257859 23.390043574420687 104.17199632696042 H 0.0 **** 0.06
1838 H 68.23532351605019 22.86256174399093 103.83139484071012 H 0.0 **** 0.06
1839 H 68.63936144811692 23.571420278249718 105.41455328497923 H 0.0 **** 0.06
1840 H 69.24051262568872 21.951413793644193 104.98501175174243 H 0.0 **** 0.06
1841 C 74.53699606863916 49.047550352917526 82.86335445895844 C 0.0 **** -0.24
1842 H 74.04497784641705 49.446986115475724 83.75029639751693 H 0.0 **** 0.06
1843 H 74.58225519831035 47.96090861579543 82.93060904906503 H 0.0 **** 0.06
1844 H 75.5481146377283 49.450633238211495 82.7956173003783 H 0.0 **** 0.06
1845 H 73.97224706181265 49.33448286946086 81.97517586912852 H 0.0 **** 0.06
1846 C 45.71936199741879 75.17192315469106 129.2033016056311 C 0.0 **** -0.24
1847 H 45.28634007361745 74.18521888239474 129.036207093567 H 0.0 **** 0.06
1848 H 45.432238384086304 75.83552837650575 128.38779072946613 H 0.0 **** 0.06
1849 H 46.80579254120289 75.08981877162526 129.24052270793013 H 0.0 **** 0.06
1850 H 45.35261054978531 75.57395957671923 130.1473619455625 H 0.0 **** 0.06
1851 C 21.471197221443617 99.74519910120213 67.71621507765131 C 0.0 **** -0.24
1852 H 21.827765029959153 99.04000880040968 66.9647266042207 H 0.0 **** 0.06
1853 H 20.38687688000357 99.82566930588902 67.6517887853897 H 0.0 **** 0.06
1854 H 21.9206505358693 100.72209000452901 67.53917913811162 H 0.0 **** 0.06
1855 H 21.7517599543732 99.39069722246282 68.70850024552104 H 0.0 **** 0.06
1856 C 22.909365177810045 78.87360643999932 120.34849118701243 C 0.0 **** -0.24
1857 H 23.549649786953744 78.08978565732093 119.94418011008042 H 0.0 **** 0.06
1858 H 22.529398063422924 78.56597838778399 121.32267947881945 H 0.0 **** 0.06
1859 H 22.073231848233213 79.04638818369551 119.67004265159233 H 0.0 **** 0.06
1860 H 23.485007306428926 79.7930828913399 120.45591585038358 H 0.0 **** 0.06
1861 C 12.782994624083642 75.46712366844949 146.08522371271033 C 0.0 **** -0.24
1862 H 12.742246393918975 74.39757381574006 145.87754230013726 H 0.0 **** 0.06
1863 H 12.869390280673912 75.62496072529242 147.1599027746005 H 0.0 **** 0.06
1864 H 11.873536187670936 75.94261661951016 145.71938135588476 H 0.0 **** 0.06
1865 H 13.648191156474354 75.90078529364527 145.58282900830326 H 0.0 **** 0.06
1866 C 12.46019671179701 145.44302065721772 134.63676057140978 C 0.0 **** -0.24
1867 H 12.589946793541401 144.36554075177492 134.74145462750204 H 0.0 **** 0.06
1868 H 11.895394823692783 145.82525102466974 135.48643321271902 H 0.0 **** 0.06
1869 H 11.920102582640169 145.65481282758347 133.71459885617148 H 0.0 **** 0.06
1870 H 13.438099115991918 145.92361830196018 134.60344907285585 H 0.0 **** 0.06
1871 C 29.77806497442856 157.65707773963538 156.98634793133593 C 0.0 **** -0.24
1872 H 29.593808956885766 158.57696405462715 157.54095025012867 H 0.0 **** 0.06
1873 H 29.46090981614364 157.78689440196754 155.9516546949228 H 0.0 **** 0.06
1874 H 29.216435800067984 156.8408442546418 157.44053557958608 H 0.0 **** 0.06
1875 H 30.842948790143794 157.4240486302174 157.01380293484 H 0.0 **** 0.06
1876 C 19.62785894485239 93.19911620731497 18.14383532474841 C 0.0 **** -0.24
1877 H 19.84024233688507 93.20914303569386 17.074966015181133 H 0.0 **** 0.06
1878 H 19.62443825083227 94.22168292455072 18.523381780510363 H 0.0 **** 0.06
1879 H 20.393441784250058 92.62178680286624 18.66098858405877 H 0.0 **** 0.06
1880 H 18.651724050427504 92.74451467954215 18.315817894349152 H 0.0 **** 0.06
1881 C 80.0087420600779 50.6407468497672 156.0319311604926 C 0.0 **** -0.24
1882 H 80.98860822678921 50.1886615221043 156.18472514136786 H 0.0 **** 0.06
1883 H 80.12186632517819 51.57225559959029 155.47745825688196 H 0.0 **** 0.06
1884 H 79.54835880411184 50.84535889933032 156.9979844674033 H 0.0 **** 0.06
1885 H 79.37633625619526 49.95449929138995 155.46729934114552 H 0.0 **** 0.06
1886 C 125.77011759769337 149.6742244457059 2.7648935586666994 C 0.0 **** -0.24
1887 H 125.29682314138441 150.23625552222143 3.570535109232253 H 0.0 **** 0.06
1888 H 126.85346076160874 149.76300641218745 2.848021275293263 H 0.0 **** 0.06
1889 H 125.44403440242851 150.07322412370456 1.8043838695629688 H 0.0 **** 0.06
1890 H 125.48460606643016 148.62490736144176 2.838171615328349 H 0.0 **** 0.06
1891 C 146.43171025924335 88.85689889834265 128.7420928084615 C 0.0 **** -0.24
1892 H 146.5695394373471 88.51996687401727 129.7691842184515 H 0.0 **** 0.06
1893 H 147.24613850474182 88.47722848926065 128.1236609823129 H 0.0 **** 0.06
1894 H 146.43088372909745 89.94602470824806 128.71378892896627 H 0.0 **** 0.06
1895 H 145.48115675783913 88.4820888603928 128.36169781451198 H 0.0 **** 0.06
1896 C 20.738190451122108 45.68810941405212 150.94074253034927 C 0.0 **** -0.24
1897 H 21.553395061146432 45.07498567987403 150.55802389792663 H 0.0 **** 0.06
1898 H 20.875011442575357 46.71945860007838 150.61504214633533 H 0.0 **** 0.06
1899 H 20.7359639462654 45.649476287376075 152.0299676559649 H 0.0 **** 0.06
1900 H 19.78933552523489 45.31010725540534 150.56154268799972 H 0.0 **** 0.06
1901 C 36.78903545265989 95.01123217089412 51.403987188945635 C 0.0 **** -0.24
1902 H 37.11920375942823 94.26020324966002 52.1213987120603 H 0.0 **** 0.06
1903 H 36.57623029072158 94.53147529098786 50.44827113404922 H 0.0 **** 0.06
1904 H 37.57333719776082 95.75622224177417 51.27067395972337 H 0.0 **** 0.06
1905 H 35.88616868402791 95.49653871856961 51.77616730957347 H 0.0 **** 0.06
1906 C 39.11578274504359 132.70217957138334 104.70422106060784 C 0.0 **** -0.24
1907 H 39.28447323572422 133.5062918445583 103.98762784254546 H 0.0 **** 0.06
1908 H 38.908581126225414 131.77598685597764 104.16779267616911 H 0.0 **** 0.06
1909 H 38.26402833386152 132.9533541518373 105.33794550530538 H 0.0 **** 0.06
1910 H 40.00389944333901 132.5735827188165 105.32315033238521 H 0.0 **** 0.06
1911 C 85.23554833025104 150.98447712534002 162.6573658029118 C 0.0 **** -0.24
1912 H 86.22283590491469 151.40834533003706 162.46995211929595 H 0.0 **** 0.06
1913 H 84.85164283720201 151.36493143459472 163.60393642762455 H 0.0 **** 0.06
1914 H 85.3098191925622 149.89831945374314 162.70489673594858 H 0.0 **** 0.06
1915 H 84.55993338834074 151.2676703089063 161.85062798417778 H 0.0 **** 0.06
1916 C 33.80367786774008 21.259545675817904 66.6142115704344 C 0.0 **** -0.24
1917 H 33.73593680593547 22.07250243725543 67.33689704712225 H 0.0 **** 0.06
1918 H 33.03502554448295 21.38786037296738 65.85064764559615 H 0.0 **** 0.06
1919 H 33.655082540617684 20.3065965395985 67.12328844690708 H 0.0 **** 0.06
1920 H 34.787838237179244 21.270851577101382 66.14559402300847 H 0.0 **** 0.06
1921 C 120.81662655159306 96.55301129448264 50.96518472221018 C 0.0 **** -0.24
1922 H 120.22897778029557 97.33750526784587 50.48830110370268 H 0.0 **** 0.06
1923 H 120.22353792351004 96.07942073105158 51.74800637239625 H 0.0 **** 0.06
1924 H 121.71638027389002 96.98733932809873 51.40154382841315 H 0.0 **** 0.06
1925 H 121.09732009790534 95.80738367468814 50.22070606664161 H 0.0 **** 0.06
1926 C 92.09586410743763 107.53002381667696 109.4685523902981 C 0.0 **** -0.24
1927 H 92.58002544563428 107.01418888685427 110.29883669884964 H 0.0 **** 0.06
1928 H 92.66520147392296 107.3593536862362 108.55527285861464 H 0.0 **** 0.06
1929 H 92.05688799919706 108.59893006142914 109.67964993910275 H 0.0 **** 0.06
1930 H 91.08372875549098 107.14657633974934 109.34364488056963 H 0.0 **** 0.06
1931 C 5.512532469182872 8.623431489843085 141.86282415896824 C 0.0 **** -0.24
1932 H 6.367807141305832 8.67440001933457 141.18943178934637 H 0.0 **** 0.06
1933 H 5.739336643708413 7.946747926034789 142.68722946186023 H 0.0 **** 0.06
1934 H 4.642899836801888 8.254945986036688 141.31894515920385 H 0.0 **** 0.06
1935 H 5.300086254915328 9.617632027966152 142.25569022546267 H 0.0 **** 0.06
1936 C 115.96210170411882 144.70602903738586 54.008139327410035 C 0.0 **** -0.24
1937 H 117.00202325518569 144.7103602319168 53.68239057735494 H 0.0 **** 0.06
1938 H 115.63504190271613 143.6773627850809 54.16433960397471 H 0.0 **** 0.06
1939 H 115.33995616639606 145.17326121842524 53.24508830671503 H 0.0 **** 0.06
1940 H 115.87198841298346 145.26151236423914 54.94174563111241 H 0.0 **** 0.06
1941 C 53.24360042402961 112.6581518754279 74.16736551354768 C 0.0 **** -0.24
1942 H 53.90648805278886 112.06882899879088 73.53430676746882 H 0.0 **** 0.06
1943 H 53.5079031630593 113.7129070478768 74.08877507214038 H 0.0 **** 0.06
1944 H 53.34713912518882 112.33295788885164 75.20299406249575 H 0.0 **** 0.06
1945 H 52.21170212316923 112.5164942401808 73.84465837899528 H 0.0 **** 0.06
1946 C 77.29600666512788 154.19097949698156 138.47050260251785 C 0.0 **** -0.24
1947 H 77.21176269852623 154.73100516789196 139.4140046478065 H 0.0 **** 0.06
1948 H 78.22480623277819 153.61949934280625 138.46113831088573 H 0.0 **** 0.06
1949 H 77.29881821100186 154.90282563445604 137.6449609426382 H 0.0 **** 0.06
1950 H 76.449973054898 153.51328167223443 138.36330839842879 H 0.0 **** 0.06
1951 C 30.933210477724685 40.188653579393474 118.68118492891278 C 0.0 **** -0.24
1952 H 31.500532697845642 40.400707756615134 117.7749579267869 H 0.0 **** 0.06
1953 H 30.29000200717303 39.324345469483944 118.51302655639029 H 0.0 **** 0.06
1954 H 30.322010965695767 41.0525787562201 118.93877034447712 H 0.0 **** 0.06
1955 H 31.621957061390447 39.97454315440956 119.4985255739922 H 0.0 **** 0.06
1956 C 34.28276926459438 119.29066546817165 56.8294283295682 C 0.0 **** -0.24
1957 H 33.20307526336222 119.40051294505187 56.72535014933332 H 0.0 **** 0.06
1958 H 34.76229571780215 119.48908950118565 55.87137451478563 H 0.0 **** 0.06
1959 H 34.51436062283764 118.27380887695904 57.14869783288175 H 0.0 **** 0.06
1960 H 34.65008570995599 119.99715325042808 57.57371019510673 H 0.0 **** 0.06
1961 C 119.0400892813793 56.6062736978854 34.0191956293277 C 0.0 **** -0.24
1962 H 119.41691182497055 56.15968579634307 34.939580812881445 H 0.0 **** 0.06
1963 H 119.83404947956032 57.18403650493076 33.54412694813891 H 0.0 **** 0.06
1964 H 118.2018729226408 57.263068875584736 34.25158384555664 H 0.0 **** 0.06
1965 H 118.70828687147412 55.81819541530865 33.3426761104277 H 0.0 **** 0.06
1966 C 38.41056583453056 124.68602241900112 2.22850486831976 C 0.0 **** -0.24
1967 H 39.458328450258136 124.4524007126499 2.0383331857430846 H 0.0 **** 0.06
1968 H 38.10517686562849 125.52402530209346 1.602366237366141 H 0.0 **** 0.06
1969 H 38.282381547746866 124.95024433402651 3.278562698726091 H 0.0 **** 0.06
1970 H 37.79628381170417 123.81570192564035 1.9957781678288598 H 0.0 **** 0.06
1971 C 62.31830370078649 64.5765926365399 154.86316666469043 C 0.0 **** -0.24
1972 H 63.11188657802137 65.32094971001362 154.79851670271847 H 0.0 **** 0.06
1973 H 62.24777637626025 64.20973329004362 155.8867759403244 H 0.0 **** 0.06
1974 H 62.54372085360035 63.746900950880985 154.19293037844423 H 0.0 **** 0.06
1975 H 61.3706668305079 65.03111330484744 154.5727442040216 H 0.0 **** 0.06
1976 C 89.23575708408313 65.36258126960075 74.96421057039841 C 0.0 **** -0.24
1977 H 88.4321835678009 65.80780161008192 74.37818558256176 H 0.0 **** 0.06
1978 H 89.65719646093761 66.1131405666369 75.63309281472283 H 0.0 **** 0.06
1979 H 90.01411304829132 64.99617294285781 74.29331128566155 H 0.0 **** 0.06
1980 H 88.84107073400617 64.53259344623086 75.54995859099823 H 0.0 **** 0.06
1981 C 61.52365626619603 120.57241027318543 65.49344756296031 C 0.0 **** -0.24
1982 H 60.58077136985777 120.02632359327379 65.50503394711319 H 0.0 **** 0.06
1983 H 62.35345008871644 119.86418739759989 65.51019558969259 H 0.0 **** 0.06
1984 H 61.579935661086196 121.21879557583736 66.36839240583771 H 0.0 **** 0.06
1985 H 61.5810209128214 121.17859245199062 64.58888007177211 H 0.0 **** 0.06
1986 C 54.416310525198156 23.827386645561802 100.07304847550353 C 0.0 **** -0.24
1987 H 54.85384678705401 24.484147956849426 100.82456390366576 H 0.0 **** 0.06
1988 H 53.67688164756319 23.178889936991958 100.54328971113793 H 0.0 **** 0.06
1989 H 55.20099587715566 23.217309289092576 99.62397451896214 H 0.0 **** 0.06
1990 H 53.93599987410175 24.42784354476695 99.30033180449061 H 0.0 **** 0.06
1991 C 22.86115173594655 103.48402921639263 108.19364274703145 C 0.0 **** -0.24
1992 H 22.120257244857157 103.30906420969563 108.97316274539494 H 0.0 **** 0.06
1993 H 22.69104434385042 104.46324270796703 107.74387688703541 H 0.0 **** 0.06
1994 H 22.77276321484871 102.7123848464247 107.42889357825743 H 0.0 **** 0.06
1995 H 23.86027185154552 103.45281291324511 108.62860642618958 H 0.0 **** 0.06
1996 C 51.43056967598528 121.1496290106322 132.2532260013725 C 0.0 **** -0.24
1997 H 52.043695737173095 120.27265912610255 132.04669731789767 H 0.0 **** 0.06
1998 H 50.3826743150172 120.91016963648906 132.07077492583457 H 0.0 **** 0.06
1999 H 51.735465340868956 121.96818097825243 131.60086630027106 H 0.0 **** 0.06
2000 H 51.5598838007823 121.44629083541193 133.29346560661998 H 0.0 **** 0.06
2001 C 126.04522328116477 49.10347915724712 110.57693610487587 C 0.0 **** -0.24
2002 H 125.33572660580731 48.278600254757805 110.51864294205186 H 0.0 **** 0.06
2003 H 126.27220220836662 49.45918959584972 109.57155432231411 H 0.0 **** 0.06
2004 H 126.9623605076655 48.76117345577383 111.05726515710046 H 0.0 **** 0.06
2005 H 125.61131754665956 49.915623192322045 111.1600773654969 H 0.0 **** 0.06
2006 C 54.93951466424198 111.74632605280962 117.56942232973444 C 0.0 **** -0.24
2007 H 55.679203383595905 110.95324645117284 117.45400032093104 H 0.0 **** 0.06
2008 H 54.39129777794926 111.59914374825908 118.50064330736973 H 0.0 **** 0.06
2009 H 54.24448421017928 111.7187103393745 116.73058928487345 H 0.0 **** 0.06
2010 H 55.443617024697176 112.7120925381642 117.59295401043573 H 0.0 **** 0.06
2011 C 125.11868967759659 51.893779864677796 107.22534338244168 C 0.0 **** -0.24
2012 H 124.30809885106623 51.76867354756931 106.50802005791422 H 0.0 **** 0.06
2013 H 125.19315592433912 51.001985137955415 107.84800044114616 H 0.0 **** 0.06
2014 H 124.91618395028809 52.761516590548766 107.85368746151357 H 0.0 **** 0.06
2015 H 126.05650527537011 52.043883218783606 106.69045952177464 H 0.0 **** 0.06
2016 C 101.90336563632289 51.70900202012865 138.85974188755432 C 0.0 **** -0.24
2017 H 102.64888697100753 52.455084855291204 139.13261394962407 H 0.0 **** 0.06
2018 H 101.26264378954048 52.10580605393751 138.07193737807276 H 0.0 **** 0.06
2019 H 101.29775116753638 51.46520793064073 139.73231990571924 H 0.0 **** 0.06
2020 H 102.40441119170168 50.808943527130424 138.502215744562 H 0.0 **** 0.06
2021 C 123.83434105923016 91.77135534139268 83.8774652989959 C 0.0 **** -0.24
2022 H 123.21760613807112 90.9211780653311 84.17142369170585 H 0.0 **** 0.06
2023 H 124.59602493884307 91.44048161700593 83.17248724427228 H 0.0 **** 0.06
2024 H 124.31417058446812 92.19383458103027 84.76033832346718 H 0.0 **** 0.06
2025 H 123.2065331164896 92.52882344705245 83.40722584964652 H 0.0 **** 0.06
2026 C 70.75509477044615 79.34454969961286 143.381891810126 C 0.0 **** -0.24
2027 H 71.76729494791347 78.99217177223738 143.58071448840536 H 0.0 **** 0.06
2028 H 70.27346417564036 78.6799295211128 142.66412731694282 H 0.0 **** 0.06
2029 H 70.79616138924646 80.35425043438022 142.97274167932366 H 0.0 **** 0.06
2030 H 70.18490263880757 79.35187465049728 144.31093978524675 H 0.0 **** 0.06
2031 C 5.193115757235148 47.112812282371465 72.04791436271326 C 0.0 **** -0.24
2032 H 4.492477239767709 47.078874065714274 72.88251650531177 H 0.0 **** 0.06
2033 H 4.750587552238244 46.61657400923747 71.1828378975679 H 0.0 **** 0.06
2034 H 6.115582934756105 46.60341379809745 72.32710847970772 H 0.0 **** 0.06
2035 H 5.411552022825049 48.150444516387466 71.79887269983168 H 0.0 **** 0.06
2036 C 151.5791519090498 137.09664064200166 126.06776973348576 C 0.0 **** -0.24
2037 H 150.67252765283763 137.1892378127288 125.46897669086866 H 0.0 **** 0.06
2038 H 151.55720868235443 136.15380994284874 126.6155011122122 H 0.0 **** 0.06
2039 H 151.63390721794815 137.9256595851756 126.77366513487004 H 0.0 **** 0.06
2040 H 152.4508707062153 137.11776934628276 125.41420508185604 H 0.0 **** 0.06
2041 C 154.59142419766712 88.99929640970026 161.90129800787352 C 0.0 **** -0.24
2042 H 153.87569901261915 89.12099910517594 161.08837933818026 H 0.0 **** 0.06
2043 H 154.13390637031887 89.3168236347158 162.83884309274512 H 0.0 **** 0.06
2044 H 155.47387684646648 89.60753417773572 161.70281880217527 H 0.0 **** 0.06
2045 H 154.8815119859314 87.95111746345178 161.97512776503098 H 0.0 **** 0.06
2046 C 23.780192910764697 65.24301446804093 93.63282161082047 C 0.0 **** -0.24
2047 H 23.941492005131096 66.25120027228049 93.2517627847777 H 0.0 **** 0.06
2048 H 23.26395735836786 65.29475591280936 94.5925281268673 H 0.0 **** 0.06
2049 H 24.741338844748242 64.74568948156725 93.76338657433746 H 0.0 **** 0.06
2050 H 23.172914959018158 64.67952545908597 92.92334044170474 H 0.0 **** 0.06
2051 C 0.6595326435231996 138.37996093552752 48.91910888701379 C 0.0 **** -0.24
2052 H 0.5609500296506056 138.37343241632456 50.004333141992234 H 0.0 **** 0.06
2053 H -0.277211546474593 138.0550779584588 48.46611525147455 H 0.0 **** 0.06
2054 H 1.4608545941435764 137.70318845488617 48.62316466034301 H 0.0 **** 0.06
2055 H 0.895188403204429 139.3898002357485 48.58209133504086 H 0.0 **** 0.06
2056 C 107.94028957342908 105.47300124453949 7.2938243944665615 C 0.0 **** -0.24
2057 H 106.85689599004502 105.36961215219935 7.237664984190012 H 0.0 **** 0.06
2058 H 108.40940094142022 104.74004309752945 6.638378974286233 H 0.0 **** 0.06
2059 H 108.2684804160393 105.30686521125551 8.320451142856847 H 0.0 **** 0.06
2060 H 108.22611511025903 106.47759376629341 6.97949569388544 H 0.0 **** 0.06
2061 C 52.99138069762611 80.2431785397198 75.7774798925143 C 0.0 **** -0.24
2062 H 53.593301079128764 80.79465850315218 75.05542134138493 H 0.0 **** 0.06
2063 H 52.40577245195071 80.94433533276865 76.37317027298145 H 0.0 **** 0.06
2064 H 53.64657026634585 79.66824078692274 76.43328025820612 H 0.0 **** 0.06
2065 H 52.32119301784243 79.56514116806673 75.24982505421313 H 0.0 **** 0.06
2066 C 51.75361577217359 46.20445566262411 146.04468476622674 C 0.0 **** -0.24
2067 H 52.57623225757773 45.4893738293985 146.06726704138072 H 0.0 **** 0.06
2068 H 51.73575834039835 46.76681614623057 146.9773029096704 H 0.0 **** 0.06
2069 H 50.81160456298683 45.670407043769444 145.92293177985255 H 0.0 **** 0.06
2070 H 51.89299200172516 46.89082722058575 145.20892868060082 H 0.0 **** 0.06
2071 C 94.92472048796554 149.58750820574994 6.61196843933277 C 0.0 **** -0.24
2072 H 94.58437778600046 149.70944740664441 5.583630686069569 H 0.0 **** 0.06
2073 H 94.83373096660137 150.53723387887163 7.139524050551387 H 0.0 **** 0.06
2074 H 95.96729068571534 149.2678637488632 6.613889594790777 H 0.0 **** 0.06
2075 H 94.31394625871292 148.83463987936108 7.110572481398151 H 0.0 **** 0.06
2076 C 123.81290030464044 87.73717555048896 94.59038900178871 C 0.0 **** -0.24
2077 H 123.84979822612513 86.7590016417029 94.11063155157717 H 0.0 **** 0.06
2078 H 124.82139074606425 88.14474304748231 94.66201739472115 H 0.0 **** 0.06
2079 H 123.38990051511263 87.63543246059105 95.58980351932246 H 0.0 **** 0.06
2080 H 123.190723854 88.40826125062887 93.9985053192147 H 0.0 **** 0.06
2081 C 52.543801615436436 99.65277198189207 115.71574836476086 C 0.0 **** -0.24
2082 H 51.623129682610866 100.19741327782003 115.50445489268523 H 0.0 **** 0.06
2083 H 52.98493233549317 100.02784930400964 116.63883369339575 H 0.0 **** 0.06
2084 H 53.245383267205625 99.79412980261705 114.89345461172212 H 0.0 **** 0.06
2085 H 52.31985163086769 98.59152410315204 115.82373539626201 H 0.0 **** 0.06
2086 C 107.42181588402576 98.77559835289168 62.84005445188245 C 0.0 **** -0.24
2087 H 106.92104506970398 98.1265820330633 63.557982194244744 H 0.0 **** 0.06
2088 H 108.4629851332636 98.90842242967261 63.13339760182555 H 0.0 **** 0.06
2089 H 106.92401297292184 99.74577118569812 62.81835572628452 H 0.0 **** 0.06
2090 H 107.37764213948083 98.32293243828704 61.84914773295128 H 0.0 **** 0.06
2091 C 106.26230493628111 131.38666370361688 79.62503995927524 C 0.0 **** -0.24
2092 H 106.69118144754555 130.59648395106242 79.00873098297693 H 0.0 **** 0.06
2093 H 106.34531703810532 131.1114223483386 80.67674622163977 H 0.0 **** 0.06
2094 H 105.21153537147529 131.5189474685513 79.36517612072146 H 0.0 **** 0.06
2095 H 106.80067094771769 132.31795437070014 79.44798178030365 H 0.0 **** 0.06
2096 C 38.351959555896514 4.321951703300897 119.09367880059557 C 0.0 **** -0.24
2097 H 38.183698516343284 3.9637822037242927 118.07813575242028 H 0.0 **** 0.06
2098 H 38.955763600235485 3.5965451534036674 119.63923986888506 H 0.0 **** 0.06
2099 H 37.39424361160661 4.450149635959974 119.59691560349916 H 0.0 **** 0.06
2100 H 38.87531601814469 5.278017756051042 119.05865588002337 H 0.0 **** 0.06
2101 C 93.90886620597828 57.41036002890664 94.8696825061088 C 0.0 **** -0.24
2102 H 92.8752585150574 57.0659087261475 94.89164334037999 H 0.0 **** 0.06
2103 H 94.57872519408166 56.55109456064706 94.90521633955578 H 0.0 **** 0.06
2104 H 94.09569207711051 58.05337725607207 95.73070796727548 H 0.0 **** 0.06
2105 H 94.08479772597254 57.97163385331764 93.95199157161177 H 0.0 **** 0.06
2106 C 98.50381891073096 26.717261303631034 10.53527758081296 C 0.0 **** -0.24
2107 H 98.24135692859329 25.73144640537481 10.917255990713898 H 0.0 **** 0.06
2108 H 97.63331507503648 27.371461935968796 10.586507152137585 H 0.0 **** 0.06
2109 H 98.83102656488711 26.629953826769736 9.498848888291214 H 0.0 **** 0.06
2110 H 99.31034604503236 27.137314461427167 11.135828300375437 H 0.0 **** 0.06
2111 C 125.19877884320942 38.84473417397081 1.4640488436646848 C 0.0 **** -0.24
2112 H 124.52364913129168 38.01969987270344 1.6914056818261827 H 0.0 **** 0.06
2113 H 124.8348271735274 39.37908615090906 0.5859235491851393 H 0.0 **** 0.06
2114 H 126.19613979752535 38.45354861467598 1.2648358396868957 H 0.0 **** 0.06
2115 H 125.23782010206838 39.525787618415876 2.3136315724511434 H 0.0 **** 0.06
2116 C 102.83387529133944 77.58577638779303 58.944640574044286 C 0.0 **** -0.24
2117 H 102.34514804475552 77.76143140390786 59.90306942142064 H 0.0 **** 0.06
2118 H 103.91532597302566 77.58127968414966 59.08477654940958 H 0.0 **** 0.06
2119 H 102.56129315509841 78.37739244004722 58.247509434360836 H 0.0 **** 0.06
2120 H 102.51545946078951 76.62359867245894 58.54536721736196 H 0.0 **** 0.06
2121 C 55.22679678016702 125.81603812539797 69.45519582758146 C 0.0 **** -0.24
2122 H 55.63874572571551 126.12966658861649 68.49535982758789 H 0.0 **** 0.06
2123 H 55.47364726032414 124.76903067423052 69.6311648425766 H 0.0 **** 0.06
2124 H 54.14390659558764 125.93796816262142 69.44228236648479 H 0.0 **** 0.06
2125 H 55.652304237035196 126.42862944054622 70.24959127012528 H 0.0 **** 0.06
2126 C 72.95295486787008 64.1536251663148 94.01550734618911 C 0.0 **** -0.24
2127 H 71.89163510114783 63.91092970408758 94.06869683877787 H 0.0 **** 0.06
2128 H 73.11465259756642 65.16245382525018 94.39637538419014 H 0.0 **** 0.06
2129 H 73.28772062458768 64.09853614092235 92.97973278665512 H 0.0 **** 0.06
2130 H 73.51884992043368 63.44272474126518 94.61860291775244 H 0.0 **** 0.06
2131 C 128.84194602714663 97.08872776048892 123.78905820319761 C 0.0 **** -0.24
2132 H 128.3509638793297 97.30568534234308 122.84020900307601 H 0.0 **** 0.06
2133 H 128.30673906255 97.58755996622307 124.5970289893753 H 0.0 **** 0.06
2134 H 129.87021029985945 97.44881984785971 123.756637095059 H 0.0 **** 0.06
2135 H 128.83938814282 96.01175877377396 123.96159272468913 H 0.0 **** 0.06
2136 C 140.23830073786573 117.03128739450295 114.50336003159836 C 0.0 **** -0.24
2137 H 140.62398428174154 118.02913781054758 114.71450840459525 H 0.0 **** 0.06
2138 H 140.705960001007 116.31099202813522 115.17526946119065 H 0.0 **** 0.06
2139 H 140.4628479246752 116.76609734550084 113.47036552709042 H 0.0 **** 0.06
2140 H 139.15831185881825 117.02057217531382 114.65423115489926 H 0.0 **** 0.06
2141 C 131.56265404188466 145.03091322334114 142.25009119990008 C 0.0 **** -0.24
2142 H 130.66330681343106 145.41278118031693 141.7657707320326 H 0.0 **** 0.06
2143 H 131.29737879268654 144.19803127258587 142.9014978033198 H 0.0 **** 0.06
2144 H 132.0205958507028 145.82345540532697 142.8422770304983 H 0.0 **** 0.06
2145 H 132.26675921723069 144.69038450603853 141.49142597310666 H 0.0 **** 0.06
2146 C 77.31062788495717 100.56807935750251 109.23011613780682 C 0.0 **** -0.24
2147 H 76.89235987010773 99.67627612243098 108.7629580002141 H 0.0 **** 0.06
2148 H 76.8843003570272 101.45638646783979 108.76464201960596 H 0.0 **** 0.06
2149 H 78.39241801029539 100.57252813625044 109.0990925921368 H 0.0 **** 0.06
2150 H 77.07406581098087 100.56554672862 110.2940939685343 H 0.0 **** 0.06
2151 C 145.0903220152013 154.4639311584513 138.7529037993595 C 0.0 **** -0.24
2152 H 145.94597710934505 154.75928312947843 138.1454596151155 H 0.0 **** 0.06
2153 H 144.50892213947634 155.3482270309515 139.01518584460672 H 0.0 **** 0.06
2154 H 145.44225526186568 153.97680139664854 139.66221806738167 H 0.0 **** 0.06
2155 H 144.4666718172566 153.7715783349365 138.18751468565415 H 0.0 **** 0.06
2156 C 21.7986853999127 57.30597405389743 95.1014570301634 C 0.0 **** -0.24
2157 H 22.77284362158241 57.727691012829354 94.85565956116515 H 0.0 **** 0.06
2158 H 21.061421571891714 57.64611862635459 94.37404134274024 H 0.0 **** 0.06
2159 H 21.50361902120943 57.632221516229265 96.09807292428918 H 0.0 **** 0.06
2160 H 21.8568573849673 56.21786506017658 95.07805429245889 H 0.0 **** 0.06
2161 C 18.128530484284965 95.09434943380569 82.54877105010542 C 0.0 **** -0.24
2162 H 17.96941551699095 95.85280970331064 83.31517909965078 H 0.0 **** 0.06
2163 H 18.03629988507592 95.55030540030134 81.56251877047134 H 0.0 **** 0.06
2164 H 17.38262784581218 94.30783068597805 82.6566613856146 H 0.0 **** 0.06
2165 H 19.125590761191177 94.6687926734989 82.66002791012443 H 0.0 **** 0.06
2166 C 78.52775150875976 144.6133696375716 60.32574597121838 C 0.0 **** -0.24
2167 H 77.4648682466378 144.5967539379388 60.086712675817296 H 0.0 **** 0.06
2168 H 78.98114024867505 145.51109380044136 59.905609290738624 H 0.0 **** 0.06
2169 H 79.00924199274161 143.73109988192616 59.90251330950339 H 0.0 **** 0.06
2170 H 78.65736278639248 144.61271686085067 61.40850373662204 H 0.0 **** 0.06
2171 C 54.292979485067974 107.84744605766659 117.42879228580955 C 0.0 **** -0.24
2172 H 54.02564559696502 106.79711742054323 117.31446297656925 H 0.0 **** 0.06
2173 H 55.330181771323836 107.92439409647156 117.75743848064337 H 0.0 **** 0.06
2174 H 53.64143517936439 108.30897548082282 118.17146482114435 H 0.0 **** 0.06
2175 H 54.175004578884995 108.35888518309699 116.47310990134969 H 0.0 **** 0.06
2176 C 147.65598671508587 128.49340657981065 122.18239592500947 C 0.0 **** -0.24
2177 H 147.13077045943498 128.4808976027208 121.22714240957788 H 0.0 **** 0.06
2178 H 147.17044031131672 127.80445105071558 122.87324598989261 H 0.0 **** 0.06
2179 H 147.63123280809953 129.50147256787903 122.59598999736065 H 0.0 **** 0.06
2180 H 148.6916014370526 128.1878512581385 122.0309925909844 H 0.0 **** 0.06
2181 C 125.77740246955642 97.29173397156336 139.35977955167877 C 0.0 **** -0.24
2182 H 126.00200014701659 98.20480231180912 138.8077542185677 H 0.0 **** 0.06
2183 H 126.0910802372639 96.42695510768209 138.77481917697426 H 0.0 **** 0.06
2184 H 124.70539334693422 97.23525968013399 139.54772619224653 H 0.0 **** 0.06
2185 H 126.31264145942384 97.30049489523992 140.3094528302068 H 0.0 **** 0.06
2186 C 147.68861379674397 97.8738386888945 62.23973535862602 C 0.0 **** -0.24
2187 H 148.53510826736527 97.95286639707138 62.92258865046304 H 0.0 **** 0.06
2188 H 147.02606117796557 98.72769890621743 62.38166708664285 H 0.0 **** 0.06
2189 H 147.142740902682 96.95169490324136 62.44404771116875 H 0.0 **** 0.06
2190 H 148.05104708094268 97.86124450262153 61.21178917349256 H 0.0 **** 0.06
2191 C 61.68510124629377 157.16509932296802 95.96909745707495 C 0.0 **** -0.24
2192 H 61.85763633810559 157.28579111888575 97.038803493143 H 0.0 **** 0.06
2193 H 60.612567678391216 157.17613373778104 95.77100936756528 H 0.0 **** 0.06
2194 H 62.10529079657175 156.21539921633178 95.63867455816751 H 0.0 **** 0.06
2195 H 62.16330730577067 157.9819576753142 95.42899169036912 H 0.0 **** 0.06
2196 C 141.8184284010476 148.87094615790693 137.0539540461496 C 0.0 **** -0.24
2197 H 141.9779685457032 149.183734562212 136.02206877562816 H 0.0 **** 0.06
2198 H 142.31793020022977 149.57010554825774 137.72626277172634 H 0.0 **** 0.06
2199 H 142.230024287761 147.8720344880026 137.19873374270577 H 0.0 **** 0.06
2200 H 140.7503315286952 148.85948860333616 137.2689787524734 H 0.0 **** 0.06
2201 C 156.760392258059 19.1151799464292 86.56839515322524 C 0.0 **** -0.24
2202 H 157.31811253580315 18.180019019391494 86.60744586490443 H 0.0 **** 0.06
2203 H 155.83526110524423 19.00932347756622 87.1356743062343 H 0.0 **** 0.06
2204 H 156.52488258426894 19.35514596659811 85.53159992015208 H 0.0 **** 0.06
2205 H 157.36087788160992 19.915994864696458 86.99898464930165 H 0.0 **** 0.06
2206 C 50.284988805708224 58.891602703371746 58.11562709679117 C 0.0 **** -0.24
2207 H 49.58608295000528 59.634193264283 57.73108878934903 H 0.0 **** 0.06
2208 H 50.25186122530732 58.00129070518369 57.486560322334185 H 0.0 **** 0.06
2209 H 50.00767921934903 58.626170662708375 59.13584770240047 H 0.0 **** 0.06
2210 H 51.29350219020398 59.303803900105436 58.1096479076686 H 0.0 **** 0.06
2211 C 122.84294934417531 18.366863793035847 105.82898206604096 C 0.0 **** -0.24
2212 H 122.51867942234747 17.733231472991662 105.0040796920589 H 0.0 **** 0.06
2213 H 121.97408510593999 18.67600961670197 106.41206158277186 H 0.0 **** 0.06
2214 H 123.34732817039182 19.249302119156567 105.43302687956822 H 0.0 **** 0.06
2215 H 123.5303177643483 17.81066105220328 106.46662854477023 H 0.0 **** 0.06
2216 C 80.53831676619913 25.388016766988024 141.48542479356186 C 0.0 **** -0.24
2217 H 80.87136459036287 25.97373079151602 142.34178047947708 H 0.0 **** 0.06
2218 H 81.33382336714689 24.70716772966078 141.18036949915 H 0.0 **** 0.06
2219 H 80.29472005760059 26.057072815054212 140.66055481447736 H 0.0 **** 0.06
2220 H 79.6541428005913 24.813509078388698 141.76042324885105 H 0.0 **** 0.06
2221 C 4.531165256238637 148.31882830971458 129.58824426872056 C 0.0 **** -0.24
2222 H 5.1496529185996565 147.56486860045686 130.07427368882796 H 0.0 **** 0.06
2223 H 3.7328560858044 147.82890769180685 129.03027193152406 H 0.0 **** 0.06
2224 H 5.143725889339066 148.90753834119744 128.90548822048635 H 0.0 **** 0.06
2225 H 4.097102936224729 148.9740042493175 130.34344241690886 H 0.0 **** 0.06
2226 C 31.955911599780457 119.68651646135595 129.9946637468546 C 0.0 **** -0.24
2227 H 31.21122249806929 119.9990105712518 130.72626979498182 H 0.0 **** 0.06
2228 H 31.53277002313451 118.9121850409141 129.35400631667483 H 0.0 **** 0.06
2229 H 32.83092701690644 119.29317525461101 130.51149694255287 H 0.0 **** 0.06
2230 H 32.24760055435992 120.54237520749041 129.3863634909195 H 0.0 **** 0.06
2231 C 79.3231295887684 110.55346632811211 74.03856452743473 C 0.0 **** -0.24
2232 H 78.53990722028873 109.98543370908641 73.53590306958904 H 0.0 **** 0.06
2233 H 80.21827321507587 109.93766493695284 74.12617955398554 H 0.0 **** 0.06
2234 H 78.98129379812312 110.84191519171372 75.03250788471249 H 0.0 **** 0.06
2235 H 79.55154971853547 111.4472214764765 73.45933591450627 H 0.0 **** 0.06
2236 C 19.55994730027853 103.98997917075235 134.04865161855952 C 0.0 **** -0.24
2237 H 20.593495546852324 103.65295653357958 134.12768717041587 H 0.0 **** 0.06
2238 H 19.317467455671903 104.17624566487416 133.00238436016548 H 0.0 **** 0.06
2239 H 19.43352088803924 104.90964177197549 134.62038139238177 H 0.0 **** 0.06
2240 H 18.896248745834775 103.2212396808684 134.445193797311 H 0.0 **** 0.06
2241 C 59.30079309388239 96.29516828717813 65.54031078244492 C 0.0 **** -0.24
2242 H 59.620568440793946 96.34410470593353 66.58086630203537 H 0.0 **** 0.06
2243 H 59.718701412599245 97.13901972554336 64.99167134526519 H 0.0 **** 0.06
2244 H 58.211692740964196 96.33410569250164 65.49321291500772 H 0.0 **** 0.06
2245 H 59.64976293260909 95.36354836097412 65.0954476512728 H 0.0 **** 0.06
2246 C 29.421492103254828 67.81514508822835 0.4429648002872 C 0.0 **** -0.24
2247 H 30.188434232661663 67.64226967242024 -0.3123084809719785 H 0.0 **** 0.06
2248 H 29.336187683802002 66.93470485887968 1.0808621686639412 H 0.0 **** 0.06
2249 H 28.46646736685802 68.00474321469775 -0.04513877864542337 H 0.0 **** 0.06
2250 H 29.69775313968318 68.67868799609681 1.0492868176418142 H 0.0 **** 0.06
2251 C 21.98981882457383 141.23124913823557 2.2789643872661998 C 0.0 **** -0.24
2252 H 21.990009303402246 142.10053832962373 1.6223076398496161 H 0.0 **** 0.06
2253 H 21.41413749485065 140.4284006423963 1.8179316682207158 H 0.0 **** 0.06
2254 H 21.54134609859642 141.49807069614693 3.235434615587714 H 0.0 **** 0.06
2255 H 23.01505876938205 140.8967463914201 2.438500698727367 H 0.0 **** 0.06
2256 C 21.327497084234096 27.931160635173214 11.7314163587169 C 0.0 **** -0.24
2257 H 21.790087225630145 27.89861932741814 10.744201424293408 H 0.0 **** 0.06
2258 H 21.70235205224037 28.795700455237288 12.278967724345193 H 0.0 **** 0.06
2259 H 21.57250533517049 27.02033536322419 12.277164577099455 H 0.0 **** 0.06
2260 H 20.24616096520859 28.010131565447182 11.6225511950949 H 0.0 **** 0.06
2261 C 76.48075977391417 6.603762427866343 2.2139569771679817 C 0.0 **** -0.24
2262 H 76.33912965820986 5.629609799482807 2.681260306710385 H 0.0 **** 0.06
2263 H 76.81223611216859 7.321778923543093 2.963874036513346 H 0.0 **** 0.06
2264 H 75.53830165833756 6.939106633665688 1.7808636564210758 H 0.0 **** 0.06
2265 H 77.23287920071377 6.52420462504719 1.4290329169861593 H 0.0 **** 0.06
2266 C 138.4623988443409 157.59558273564753 84.44848180102619 C 0.0 **** -0.24
2267 H 138.2374188222123 158.0002155630158 85.43490670881542 H 0.0 **** 0.06
2268 H 139.42785918492288 157.97376381894975 84.11271663311481 H 0.0 **** 0.06
2269 H 137.68775311177922 157.90182993256354 83.74571122062315 H 0.0 **** 0.06
2270 H 138.49622896757197 156.507190066365 84.49992871351171 H 0.0 **** 0.06
2271 C 44.93844089108316 17.59398424886257 80.80215170489987 C 0.0 **** -0.24
2272 H 45.78792392076552 16.994924613820217 81.13073046651814 H 0.0 **** 0.06
2273 H 45.293315596192826 18.56542026595298 80.45480471726101 H 0.0 **** 0.06
2274 H 44.24964918396182 17.734859883165427 81.63467910626817 H 0.0 **** 0.06
2275 H 44.42573313986969 17.081643123435498 79.98836415634578 H 0.0 **** 0.06
2276 C 26.318367093238635 139.53914115500828 21.137899494025703 C 0.0 **** -0.24
2277 H 26.747131005100982 138.64389634601412 21.5884026575755 H 0.0 **** 0.06
2278 H 27.120406832105914 140.18863338262446 20.78597054466772 H 0.0 **** 0.06
2279 H 25.720618278174697 140.06862009841268 21.880328131076652 H 0.0 **** 0.06
2280 H 25.684895431715006 139.25564534244202 20.297775922789583 H 0.0 **** 0.06
2281 C 11.461163408414308 125.87653967013472 55.928970548669824 C 0.0 **** -0.24
2282 H 10.402322352739532 125.90663079384711 55.67408436574861 H 0.0 **** 0.06
2283 H 11.595947654112479 125.31731869921998 56.85456114604051 H 0.0 **** 0.06
2284 H 11.831928147615372 126.89317136027918 56.06193816996448 H 0.0 **** 0.06
2285 H 12.014999735496161 125.3904444549787 55.12615014305915 H 0.0 **** 0.06
2286 C 116.37454406553275 66.25010422012765 78.23780591761674 C 0.0 **** -0.24
2287 H 117.4543669434068 66.16119958372782 78.35601914753289 H 0.0 **** 0.06
2288 H 116.14104511995689 66.47552802896698 77.19638945022133 H 0.0 **** 0.06
2289 H 116.00400918511511 67.05264313620408 78.8750570666295 H 0.0 **** 0.06
2290 H 115.89975041923722 65.31116576534785 78.52152304823801 H 0.0 **** 0.06
2291 C 35.94149268719471 157.42003438703247 133.86446916988808 C 0.0 **** -0.24
2292 H 36.431169983849756 158.218568866288 134.42311729666017 H 0.0 **** 0.06
2293 H 35.009720882502734 157.14903338958888 134.3622820465676 H 0.0 **** 0.06
2294 H 36.59795170643797 156.5511360665635 133.82381077882482 H 0.0 **** 0.06
2295 H 35.727850101256124 157.76238919863366 132.85220197826675 H 0.0 **** 0.06
2296 C 126.1267981344509 110.60140510159678 118.63052929734894 C 0.0 **** -0.24
2297 H 127.19876581307085 110.79265824455689 118.68826503226325 H 0.0 **** 0.06
2298 H 125.88776327007352 109.69881941742594 119.19191529429116 H 0.0 **** 0.06
2299 H 125.83831705615603 110.4678406444958 117.58755466585083 H 0.0 **** 0.06
2300 H 125.5840566069854 111.44723976305698 119.05290025372315 H 0.0 **** 0.06
2301 C 24.654525317611643 154.81683093737303 76.38285564333779 C 0.0 **** -0.24
2302 H 25.673088549054825 154.6396610987196 76.03690526972787 H 0.0 **** 0.06
2303 H 24.205794523355337 155.61738024085912 75.79358627847176 H 0.0 **** 0.06
2304 H 24.67219913001628 155.10439520476245 77.4342467666799 H 0.0 **** 0.06
2305 H 24.066912770475994 153.90577698867344 76.26445340570615 H 0.0 **** 0.06
2306 C 158.1409227468239 38.835399879737395 8.51828330860721 C 0.0 **** -0.24
2307 H 158.55982527292736 39.53765434783247 9.238644450836944 H 0.0 **** 0.06
2308 H 158.29346723880332 37.81635167953675 8.872388900055824 H 0.0 **** 0.06
2309 H 158.6361710729172 38.96485369427816 7.556322477776121 H 0.0 **** 0.06
2310 H 157.07288170569655 39.02575761767329 8.405490714457159 H 0.0 **** 0.06
2311 C 83.35593365032537 83.59327843723719 13.25353214158605 C 0.0 **** -0.24
2312 H 83.02347040421358 83.5983808331388 12.215208478799752 H 0.0 **** 0.06
2313 H 82.7074523190858 84.23975995916187 13.845575625884408 H 0.0 **** 0.06
2314 H 84.3815029065164 83.9571640345647 13.308119695445953 H 0.0 **** 0.06
2315 H 83.30914382990164 82.57615775070855 13.643965374840207 H 0.0 **** 0.06
2316 C 26.22163344738118 118.72376694082209 0.23003198378409095 C 0.0 **** -0.24
2317 H 25.401790983195433 118.07735666892899 -0.08121215311383878 H 0.0 **** 0.06
2318 H 27.10941184739044 118.49292798092611 -0.3584990128809942 H 0.0 **** 0.06
2319 H 26.433098570091154 118.56004227664741 1.286836412177621 H 0.0 **** 0.06
2320 H 25.941822780273867 119.76580912381914 0.07217139839643849 H 0.0 **** 0.06
2321 C 20.860325175420655 96.12293358417527 22.331006421561142 C 0.0 **** -0.24
2322 H 21.462563011832003 96.36776313969617 23.20499777419394 H 0.0 **** 0.06
2323 H 19.843581175576873 95.88428343973746 22.64545617665715 H 0.0 **** 0.06
2324 H 21.294181684126556 95.26299510188912 21.820281244544162 H 0.0 **** 0.06
2325 H 20.840400787506212 96.97619069452341 21.652643543767567 H 0.0 **** 0.06
2326 C 100.41643056436146 71.19663568694259 107.99849126747571 C 0.0 **** -0.24
2327 H 99.78584964679965 71.76777073801236 108.67993555611622 H 0.0 **** 0.06
2328 H 99.78947832938331 70.59118071156696 107.34443851466025 H 0.0 **** 0.06
2329 H 101.07648668283983 70.54706754252581 108.57368428979109 H 0.0 **** 0.06
2330 H 101.01510592508745 71.88155563960711 107.39748765197675 H 0.0 **** 0.06
2331 C 50.49677029368581 2.428026941009591 21.372467348884157 C 0.0 **** -0.24
2332 H 50.243651643026 3.1282997579841663 22.168535052409283 H 0.0 **** 0.06
2333 H 49.811421313815174 1.5805924412118486 21.40353858524861 H 0.0 **** 0.06
2334 H 51.518433989949926 2.0748217665915263 21.509055142582014 H 0.0 **** 0.06
2335 H 50.41165382082332 2.9294844491267042 20.40839037534056 H 0.0 **** 0.06
2336 C 126.85594415037392 79.64827798228943 51.93879827900962 C 0.0 **** -0.24
2337 H 127.62400903750358 80.2880108300505 51.504374450660904 H 0.0 **** 0.06
2338 H 125.99499402403728 79.61056783017348 51.27197472182655 H 0.0 **** 0.06
2339 H 126.55040638131939 80.05218388169875 52.90492850123425 H 0.0 **** 0.06
2340 H 127.2546176290727 78.64328415414177 52.075665755463234 H 0.0 **** 0.06
2341 C 132.49202530608318 99.49217616461073 25.270075593475624 C 0.0 **** -0.24
2342 H 131.7069854352182 100.01466891089018 25.817661767855796 H 0.0 **** 0.06
2343 H 132.5278605394147 98.4509620238174 25.592945306924044 H 0.0 **** 0.06
2344 H 133.45217622637463 99.96829916031001 25.46919857829038 H 0.0 **** 0.06
2345 H 132.2793054399912 99.53458219918642 24.201844885903114 H 0.0 **** 0.06
2346 C 0.8611171810509859 22.123070200566588 88.2737135323946 C 0.0 **** -0.24
2347 H 0.9560636513396616 21.32254613619483 87.53979169875034 H 0.0 **** 0.06
2348 H 0.21005404695944208 21.796372039702675 89.08501864455275 H 0.0 **** 0.06
2349 H 0.4346798969490351 23.004576790391127 87.79594873424388 H 0.0 **** 0.06
2350 H 1.845874306059443 22.36658849058867 88.67353114982998 H 0.0 **** 0.06
2351 C 43.52356058036524 148.9882750296804 118.40171720600353 C 0.0 **** -0.24
2352 H 43.19422292780649 148.15918123478585 119.02843968209626 H 0.0 **** 0.06
2353 H 42.65912222456075 149.43592968144657 117.9104641916596 H 0.0 **** 0.06
2354 H 44.2198891425392 148.62033950165073 117.64919624987616 H 0.0 **** 0.06
2355 H 44.01834611184292 149.73653008467008 119.02114800536978 H 0.0 **** 0.06
2356 C 88.9599597841568 35.97585506429587 35.938262190013575 C 0.0 **** -0.24
2357 H 89.36806454926794 35.31681199641977 36.70508004013794 H 0.0 **** 0.06
2358 H 89.43629287663667 36.953978319645884 36.010977817736205 H 0.0 **** 0.06
2359 H 87.88551835848506 36.08293640280097 36.085456106989454 H 0.0 **** 0.06
2360 H 89.15172284824894 35.54945412601147 34.95373640754832 H 0.0 **** 0.06
2361 C 98.01773039582119 53.46300749185917 70.70509622782112 C 0.0 **** -0.24
2362 H 97.52658870635679 54.424869907319845 70.85364386825108 H 0.0 **** 0.06
2363 H 98.99291406309396 53.47419484914951 71.19237902828706 H 0.0 **** 0.06
2364 H 98.14623215748057 53.281725829544115 69.63795466550707 H 0.0 **** 0.06
2365 H 97.40404418732106 52.67177094828381 71.13576527327551 H 0.0 **** 0.06
2366 C 61.89285990320346 84.07100781279438 121.02348038521592 C 0.0 **** -0.24
2367 H 61.31603719380654 84.85025495558224 120.52592306134929 H 0.0 **** 0.06
2368 H 62.43617145578412 84.50315664409585 121.86513462974571 H 0.0 **** 0.06
2369 H 62.601392449230076 83.63684270052497 120.31914019931901 H 0.0 **** 0.06
2370 H 61.2180023118739 83.29530194606927 121.38630198941766 H 0.0 **** 0.06
2371 C 64.49525813252184 74.08250283226936 47.250464654974394 C 0.0 **** -0.24
2372 H 65.42167551705407 74.60785722017987 47.015314711114115 H 0.0 **** 0.06
2373 H 64.72754947516867 73.07704727613786 47.603061799838486 H 0.0 **** 0.06
2374 H 63.87642723914651 74.020313648617 46.35583922568435 H 0.0 **** 0.06
2375 H 63.95734941992497 74.62581711676346 48.027915416856615 H 0.0 **** 0.06
2376 C 6.334855104974963 140.04473064417778 8.081382065372054 C 0.0 **** -0.24
2377 H 5.940013557521155 139.15562304865068 8.573442737419953 H 0.0 **** 0.06
2378 H 6.041891916329263 140.93115773833722 8.644814812871488 H 0.0 **** 0.06
2379 H 5.933561850331785 140.1071100815201 7.070008555496003 H 0.0 **** 0.06
2380 H 7.421862286555893 139.98326719902172 8.038493129306602 H 0.0 **** 0.06
2381 C 29.89356355325822 65.89151147044943 145.33975059314864 C 0.0 **** -0.24
2382 H 29.59427904713445 66.83649642188684 145.79166766791352 H 0.0 **** 0.06
2383 H 29.63181401369883 65.89513234687874 144.28197419758155 H 0.0 **** 0.06
2384 H 29.377171897081496 65.07025854764929 145.8385493550737 H 0.0 **** 0.06
2385 H 30.97013083693537 65.76206317652121 145.44774530662875 H 0.0 **** 0.06
2386 C 101.0570803968497 145.21070660227298 141.59561030541062 C 0.0 **** -0.24
2387 H 101.07933442901236 144.25224466130646 142.11431573687193 H 0.0 **** 0.06
2388 H 101.31178476121934 146.00823509087147 142.29387663326514 H 0.0 **** 0.06
2389 H 100.05847851601533 145.38290656498577 141.1941687658579 H 0.0 **** 0.06
2390 H 101.77903224665917 145.19816361095488 140.77955514050888 H 0.0 **** 0.06
2391 C 151.90989197060412 149.1865324637251 131.0363328796336 C 0.0 **** -0.24
2392 H 151.37748196369503 148.87117406003557 130.13818224502364 H 0.0 **** 0.06
2393 H 151.62602527614834 150.20848198634522 131.28638229535338 H 0.0 **** 0.06
2394 H 152.98448416764316 149.1411387167383 130.85584489550268 H 0.0 **** 0.06
2395 H 151.65152797314875 148.52373919490873 131.86201500633442 H 0.0 **** 0.06
2396 C 29.815435633998504 53.03221058562883 135.11620535572257 C 0.0 **** -0.24
2397 H 30.306880917132048 53.82883123457 135.6762258739896 H 0.0 **** 0.06
2398 H 30.004028993253314 53.168878040831544 134.05124553677535 H 0.0 **** 0.06
2399 H 28.742129794771927 53.065925646660276 135.30268784788356 H 0.0 **** 0.06
2400 H 30.209721161053153 52.06801067432525 135.43498626750053 H 0.0 **** 0.06
2401 C 75.01529868001897 105.65482375084494 91.45472818131242 C 0.0 **** -0.24
2402 H 74.45301202074606 105.30022691515484 90.59037832153189 H 0.0 **** 0.06
2403 H 74.72565949401374 106.68145800154483 91.67953058846649 H 0.0 **** 0.06
2404 H 76.08208840534819 105.61749575531618 91.23391794317698 H 0.0 **** 0.06
2405 H 74.79954126351716 105.01959267398996 92.31369678721887 H 0.0 **** 0.06
2406 C 95.25884270316 153.67450275108894 26.321707090617537 C 0.0 **** -0.24
2407 H 95.73364437566057 153.13763735387954 25.50113366930188 H 0.0 **** 0.06
2408 H 94.18877807515229 153.46623730515722 26.321954479992996 H 0.0 **** 0.06
2409 H 95.42056514115417 154.74557491047236 26.195694502540704 H 0.0 **** 0.06
2410 H 95.69338999688301 153.3505467689367 27.2670234429132 H 0.0 **** 0.06
2411 C 39.884333651662445 159.949436066961 93.30314541516066 C 0.0 **** -0.24
2412 H 40.31265216218107 160.81872960971555 93.80203001435629 H 0.0 **** 0.06
2413 H 39.65291978596112 159.18329997105832 94.04366549247493 H 0.0 **** 0.06
2414 H 40.601076021106294 159.55532145986143 92.58253254054364 H 0.0 **** 0.06
2415 H 38.97054296191713 160.2417439328193 92.7847473289886 H 0.0 **** 0.06
2416 C 39.88444838861676 118.25057460315429 137.2554794438396 C 0.0 **** -0.24
2417 H 40.037242527680974 117.3711905406451 137.8814534766584 H 0.0 **** 0.06
2418 H 38.82630482298646 118.34103099781612 137.00833835855212 H 0.0 **** 0.06
2419 H 40.46477072460374 118.14894168131161 136.33821906501746 H 0.0 **** 0.06
2420 H 40.20953568932612 119.14024043067695 137.79434937437776 H 0.0 **** 0.06
2421 C 93.08878825540096 108.58282491351508 92.40642986693216 C 0.0 **** -0.24
2422 H 92.67998341328205 109.42865327226548 91.85278569088076 H 0.0 **** 0.06
2423 H 93.8968806191752 108.12915852603885 91.83240773913316 H 0.0 **** 0.06
2424 H 92.30355403602005 107.84512828241009 92.57335432199194 H 0.0 **** 0.06
2425 H 93.47272347850554 108.92826886952844 93.36619914512572 H 0.0 **** 0.06
2426 C 122.10829289841169 47.1781155834377 5.84873891310675 C 0.0 **** -0.24
2427 H 121.04411808037082 47.40569291284193 5.795359687574113 H 0.0 **** 0.06
2428 H 122.64936715976305 47.80626096817733 5.140016879518093 H 0.0 **** 0.06
2429 H 122.2690449242182 46.12933015365668 5.59968920761542 H 0.0 **** 0.06
2430 H 122.47188080299307 47.372397056310376 6.857444707938747 H 0.0 **** 0.06
2431 C 133.46511175612125 108.51067221767926 112.51274366333183 C 0.0 **** -0.24
2432 H 134.42199371358436 108.27313307401704 112.97596594903459 H 0.0 **** 0.06
2433 H 133.23306205144613 107.76475710741016 111.75295328361804 H 0.0 **** 0.06
2434 H 133.5211674579783 109.49676661443218 112.04906648264932 H 0.0 **** 0.06
2435 H 132.6843241434722 108.51176533575392 113.2732194094661 H 0.0 **** 0.06
2436 C 105.56148635312798 152.0420950271554 13.871221932752924 C 0.0 **** -0.24
2437 H 104.53973323239936 151.68547880411586 13.747067837460449 H 0.0 **** 0.06
2438 H 106.03324088122116 151.5122994431971 14.698983474555597 H 0.0 **** 0.06
2439 H 105.55042525739384 153.11179555850285 14.08379739135031 H 0.0 **** 0.06
2440 H 106.12368245280592 151.85962970992225 12.954864012164094 H 0.0 **** 0.06
2441 C 6.022912353810284 92.16164992770771 89.03193200491728 C 0.0 **** -0.24
2442 H 6.167077343050067 93.23609683750585 89.14504764121563 H 0.0 **** 0.06
2443 H 5.589036069835515 91.95523468970613 88.0526603226227 H 0.0 **** 0.06
2444 H 5.350636430902057 91.80162408551172 89.81005044084856 H 0.0 **** 0.06
2445 H 6.983566900527364 91.65456942781674 89.11765272168054 H 0.0 **** 0.06
2446 C 42.916158929581684 128.8470564728151 98.65631367686538 C 0.0 **** -0.24
2447 H 42.49917185428876 129.6184295182244 98.00866619019118 H 0.0 **** 0.06
2448 H 42.783969186738545 127.87085021995472 98.18929751719529 H 0.0 **** 0.06
2449 H 42.40220202881366 128.862983788748 99.61787881150357 H 0.0 **** 0.06
2450 H 43.97828229683434 129.0368385697376 98.80895228206955 H 0.0 **** 0.06
2451 C 133.5591177500356 144.34904222867215 19.546958502143156 C 0.0 **** -0.24
2452 H 133.11166791190632 143.45817098152526 19.106084457527004 H 0.0 **** 0.06
2453 H 134.63025077179952 144.35697747924968 19.342547226266703 H 0.0 **** 0.06
2454 H 133.3945761716197 144.34286357264654 20.62498623087174 H 0.0 **** 0.06
2455 H 133.09978480469456 145.23776498176352 19.115116001634306 H 0.0 **** 0.06
2456 C 18.585815175616773 144.72512668128644 105.35044500426613 C 0.0 **** -0.24
2457 H 19.439195151008107 144.94444417040165 104.7095641402949 H 0.0 **** 0.06
2458 H 18.306188689934572 145.62226907380722 105.90221886562469 H 0.0 **** 0.06
2459 H 18.852540526653172 143.9347175758285 106.05196612766659 H 0.0 **** 0.06
2460 H 17.74607765753541 144.39794036433318 104.73625292432351 H 0.0 **** 0.06
2461 C 52.71481577532428 22.54231677294362 22.441652484408984 C 0.0 **** -0.24
2462 H 52.89702417310926 21.567957536389798 22.89592229302164 H 0.0 **** 0.06
2463 H 52.35156233745302 22.40545621951614 21.422426784659052 H 0.0 **** 0.06
2464 H 53.64432669262693 23.11284862608352 22.4229771611247 H 0.0 **** 0.06
2465 H 51.969032577270454 23.081678748433603 23.025070788931792 H 0.0 **** 0.06
2466 C 71.76551954699562 20.89706597899645 117.26011489433324 C 0.0 **** -0.24
2467 H 70.88299456167135 21.422137339040013 116.89389284399999 H 0.0 **** 0.06
2468 H 71.88135679899517 21.082241934946275 118.32798963004353 H 0.0 **** 0.06
2469 H 72.6475617278227 21.255838618263894 116.73068727180492 H 0.0 **** 0.06
2470 H 71.6475162374879 19.827188589671017 117.08739125516865 H 0.0 **** 0.06
2471 C 129.7462302587237 146.10335158771875 129.45084321134016 C 0.0 **** -0.24
2472 H 129.823918952957 146.7865279313624 130.29704615862403 H 0.0 **** 0.06
2473 H 130.67834820641897 145.54768687928646 129.34670037731783 H 0.0 **** 0.06
2474 H 129.55710482486393 146.67272880849183 128.54122681732213 H 0.0 **** 0.06
2475 H 128.92509154387008 145.40682878348562 129.62116660884462 H 0.0 **** 0.06
2476 C 42.876054080417944 38.943649003111176 119.49711137006068 C 0.0 **** -0.24
2477 H 41.82422333745578 38.734054800242376 119.6906758384105 H 0.0 **** 0.06
2478 H 42.958870124182425 39.80949154653361 118.84039526684552 H 0.0 **** 0.06
2479 H 43.33625089607804 38.07880919488015 119.01975527903133 H 0.0 **** 0.06
2480 H 43.38378498766609 39.15110633031925 120.4392104346505 H 0.0 **** 0.06
2481 C 86.613721044192 68.05134053767965 73.0225675641642 C 0.0 **** -0.24
2482 H 87.0914350280518 69.03053966959708 72.99558135369773 H 0.0 **** 0.06
2483 H 86.2543684913395 67.85017307189229 74.0326464237005 H 0.0 **** 0.06
2484 H 87.33475792466268 67.28634283922405 72.73435723013506 H 0.0 **** 0.06
2485 H 85.77365318655536 68.03879369116764 72.32824600851444 H 0.0 **** 0.06
2486 C 2.5095938037558554 27.894210792373144 38.975815337885265 C 0.0 **** -0.24
2487 H 1.453420923821092 28.084991690214167 39.16883964839424 H 0.0 **** 0.06
2488 H 2.8113077484257687 28.413874709338074 38.06579116303219 H 0.0 **** 0.06
2489 H 2.668742048050099 26.822624154658286 38.853931042032 H 0.0 **** 0.06
2490 H 3.102844266937197 28.25642075408217 39.81548354019907 H 0.0 **** 0.06
2491 C 156.4369087263624 53.62978780300844 89.82747110789771 C 0.0 **** -0.24
2492 H 157.1757231282608 53.75220019624513 90.61992196618182 H 0.0 **** 0.06
2493 H 156.8176302829379 54.0706731524792 88.90599779241856 H 0.0 **** 0.06
2494 H 155.51101898809623 54.1291758088834 90.11406609919213 H 0.0 **** 0.06
2495 H 156.24487895205465 52.568462495479764 89.67113812366513 H 0.0 **** 0.06
2496 C 42.5088720044791 137.81763671264878 96.54338597254488 C 0.0 **** -0.24
2497 H 43.44263273211972 138.10391317193944 97.02639893302438 H 0.0 **** 0.06
2498 H 41.83983961600259 137.37271569553627 97.28072567825168 H 0.0 **** 0.06
2499 H 42.714971137967055 137.0943155526257 95.75458023220884 H 0.0 **** 0.06
2500 H 42.03756961242205 138.70148078353017 96.11233539551381 H 0.0 **** 0.06
2501 C 35.665698777896665 138.0185390540046 142.1927711845821 C 0.0 **** -0.24
2502 H 35.11372344412774 138.09126841478522 141.25536063146913 H 0.0 **** 0.06
2503 H 35.203623649085046 138.66797294225105 142.9367759411046 H 0.0 **** 0.06
2504 H 36.698202402806146 138.32811981221985 142.03131261188835 H 0.0 **** 0.06
2505 H 35.64653971642974 136.9888455091159 142.54709015360498 H 0.0 **** 0.06
2506 C 2.653629365481038 161.80442840051336 12.171843678856433 C 0.0 **** -0.24
2507 H 2.4781576311474396 162.0600838926773 13.217060791029262 H 0.0 **** 0.06
2508 H 1.8881729437235606 162.2702211581008 11.550986660895347 H 0.0 **** 0.06
2509 H 2.611365808213179 160.72168201026744 12.051199907743325 H 0.0 **** 0.06
2510 H 3.636467451183961 162.16592171217877 11.871100086373708 H 0.0 **** 0.06
2511 C 143.97905626787644 124.082587225623 154.93762373849637 C 0.0 **** -0.24
2512 H 142.94372532298706 123.87689096555272 155.20928480784724 H 0.0 **** 0.06
2513 H 144.37138778713003 124.87429003264614 155.5759939322192 H 0.0 **** 0.06
2514 H 144.0245742409291 124.39909475839949 153.8959789205744 H 0.0 **** 0.06
2515 H 144.5752672276359 123.17970379343535 155.06973678018772 H 0.0 **** 0.06
2516 C 140.7104127403697 48.11717754437224 90.71149956884634 C 0.0 **** -0.24
2517 H 141.05120559682058 47.83411393238271 89.71582238097179 H 0.0 **** 0.06
2518 H 141.16174572593633 49.06868850948848 90.99348944476299 H 0.0 **** 0.06
2519 H 141.0025167705359 47.34924005083258 91.42802808081231 H 0.0 **** 0.06
2520 H 139.62410871745783 48.21747956866386 90.70885558502631 H 0.0 **** 0.06
2521 C 107.72338510649809 44.000118851522586 80.16649771500954 C 0.0 **** -0.24
2522 H 108.41619594084491 44.57289779258184 79.55018019733375 H 0.0 **** 0.06
2523 H 107.9573663710959 44.159173843392864 81.2195134589553 H 0.0 **** 0.06
2524 H 107.81698435207628 42.94016336688992 79.92911738045157 H 0.0 **** 0.06
2525 H 106.70353845067993 44.32862520739067 79.96643465878566 H 0.0 **** 0.06
2526 C 50.08339824722816 32.86703248380087 65.12070553493048 C 0.0 **** -0.24
2527 H 49.94228250888261 33.6719776499894 64.40012420495039 H 0.0 **** 0.06
2528 H 49.64880012077896 33.15629500678756 66.07788970568159 H 0.0 **** 0.06
2529 H 51.14868763445509 32.6757340490542 65.24802510330429 H 0.0 **** 0.06
2530 H 49.59304809782776 31.96447140619628 64.75625515216947 H 0.0 **** 0.06
2531 C 71.57003720437183 53.81318073033479 101.11561983637836 C 0.0 **** -0.24
2532 H 71.8873598403834 54.68916403304047 100.55126674950722 H 0.0 **** 0.06
2533 H 71.12551985406337 53.08493485682496 100.43677585654345 H 0.0 **** 0.06
2534 H 70.8339692478648 54.10984962666899 101.86323498096377 H 0.0 **** 0.06
2535 H 72.43329987517556 53.36877440480488 101.61120175849896 H 0.0 **** 0.06
2536 C 143.94191441809812 61.7283212254539 18.800829800872464 C 0.0 **** -0.24
2537 H 144.956605282619 62.01813446927903 18.528294331793063 H 0.0 **** 0.06
2538 H 143.97592271392247 60.837097699790746 19.42873502244271 H 0.0 **** 0.06
2539 H 143.3701513173173 61.515700906977585 17.897611440074797 H 0.0 **** 0.06
2540 H 143.4670681952943 62.54194270639999 19.349360578188822 H 0.0 **** 0.06
2541 C 58.52216525135191 122.82521893565408 107.6541349201745 C 0.0 **** -0.24
2542 H 58.95129128336214 123.57959553101665 108.31459589355572 H 0.0 **** 0.06
2543 H 57.755223952035465 122.26705530024643 108.19018643363052 H 0.0 **** 0.06
2544 H 59.306728957652496 122.14330604186097 107.32497314261653 H 0.0 **** 0.06
2545 H 58.077386875277114 123.3137474615678 106.78644029066865 H 0.0 **** 0.06
2546 C 128.0969759223548 117.54511512524039 123.75600874406558 C 0.0 **** -0.24
2547 H 128.6432938574065 117.01730419571862 124.53770829786859 H 0.0 **** 0.06
2548 H 128.80480867212262 118.03369050166134 123.08582385963507 H 0.0 **** 0.06
2549 H 127.4487188626081 118.29522532132421 124.20911616769337 H 0.0 **** 0.06
2550 H 127.49289216964652 116.8348759358154 123.1919529385545 H 0.0 **** 0.06
2551 C 43.837942072262535 35.66836948899005 137.2709571255204 C 0.0 **** -0.24
2552 H 44.31772070633417 34.68970123301867 137.24241270705767 H 0.0 **** 0.06
2553 H 43.80377247026729 36.08542194122846 136.26365349882738 H 0.0 **** 0.06
2554 H 44.40860140766833 36.332769370375544 137.9204011948704 H 0.0 **** 0.06
2555 H 42.823973445384695 35.56514278219622 137.65664315029932 H 0.0 **** 0.06
2556 C 27.105651109134726 155.75868794890408 106.36584280421869 C 0.0 **** -0.24
2557 H 26.55975886109541 156.70172537907416 106.33221357290634 H 0.0 **** 0.06
2558 H 27.24792971527608 155.4590956125855 107.40494921629409 H 0.0 **** 0.06
2559 H 28.076383156793895 155.88353806822266 105.88760379435627 H 0.0 **** 0.06
2560 H 26.537534216747716 154.99139308667395 105.84105464635809 H 0.0 **** 0.06
2561 C 86.07814573069425 19.392032914579204 139.32301169456304 C 0.0 **** -0.24
2562 H 85.64610754065652 19.85756476703969 138.43691747507512 H 0.0 **** 0.06
2563 H 85.53049830996531 19.719060812356588 140.20766753394918 H 0.0 **** 0.06
2564 H 87.12330449620791 19.68386944429028 139.4132578983374 H 0.0 **** 0.06
2565 H 86.00987205468022 18.30766048897874 139.23312833231668 H 0.0 **** 0.06
2566 C 10.799687705305075 35.93070648617507 122.7765447012408 C 0.0 **** -0.24
2567 H 11.38788634307383 35.320166705763995 122.091400631223 H 0.0 **** 0.06
2568 H 9.892865162931116 35.39318170302647 123.05553192313403 H 0.0 **** 0.06
2569 H 10.531920552382473 36.86831590017513 122.28836827265562 H 0.0 **** 0.06
2570 H 11.387062729856467 36.14216782608821 123.67073851387326 H 0.0 **** 0.06
2571 C 144.66722178444383 134.28233910580792 94.13245502138331 C 0.0 **** -0.24
2572 H 144.28236727575012 134.96485502026655 93.37512558775082 H 0.0 **** 0.06
2573 H 144.47388465505162 134.69292759844967 95.12356636976716 H 0.0 **** 0.06
2574 H 145.74084315113072 134.15447540841632 93.99493089099768 H 0.0 **** 0.06
2575 H 144.17087542643998 133.31671352998626 94.03608907605623 H 0.0 **** 0.06
2576 C 107.15026596049941 18.88724252784536 1.1831884397257397 C 0.0 **** -0.24
2577 H 106.65923856407625 19.115299556253376 2.129266632090463 H 0.0 **** 0.06
2578 H 106.42657990134597 18.959805326638474 0.3710831534553449 H 0.0 **** 0.06
2579 H 107.55583438073745 17.87613741348997 1.2201419596270853 H 0.0 **** 0.06
2580 H 107.96007906110353 19.59704666410437 1.0145180951424777 H 0.0 **** 0.06
2581 C 152.425235493211 94.64685855125425 138.98746569157342 C 0.0 **** -0.24
2582 H 152.17781237565447 94.79781062102582 137.93671970489385 H 0.0 **** 0.06
2583 H 152.00909355594018 95.46386065389024 139.57950910314548 H 0.0 **** 0.06
2584 H 153.5083150112547 94.62576876841935 139.10685088412552 H 0.0 **** 0.06
2585 H 152.00370903126975 93.70092297950859 139.3270819210395 H 0.0 **** 0.06
2586 C 98.52319445568855 129.4314176086161 125.62896369230256 C 0.0 **** -0.24
2587 H 98.72716007639019 128.3887362558506 125.39129713459016 H 0.0 **** 0.06
2588 H 98.05098471899407 129.9145858349741 124.77245663224105 H 0.0 **** 0.06
2589 H 99.45857564740413 129.94048306763267 125.86254506342738 H 0.0 **** 0.06
2590 H 97.85606825216564 129.48485342598207 126.48928926847589 H 0.0 **** 0.06
2591 C 134.76233302061414 109.1651559225271 128.5665635762328 C 0.0 **** -0.24
2592 H 135.54902423300538 109.9177791417626 128.6234942016963 H 0.0 **** 0.06
2593 H 134.02073291255684 109.3555338470722 129.34253418702122 H 0.0 **** 0.06
2594 H 135.19596978054201 108.17546580985857 128.71178586366204 H 0.0 **** 0.06
2595 H 134.28439565262863 109.21205211231359 127.58786368000187 H 0.0 **** 0.06
2596 C 120.05653007380647 2.427168665699469 134.8504991940245 C 0.0 **** -0.24
2597 H 119.19159776745829 2.126149685535438 134.25881637675505 H 0.0 **** 0.06
2598 H 120.23209894995131 3.494900997789159 134.71781496698028 H 0.0 **** 0.06
2599 H 120.93350957825291 1.8704639386302233 134.52011055379882 H 0.0 **** 0.06
2600 H 119.86763353666882 2.2176398478756596 135.9027789057393 H 0.0 **** 0.06
2601 C 153.90525701366 76.84335343309675 2.5651585587939394 C 0.0 **** -0.24
2602 H 154.18389103004915 75.80652523628584 2.3768125161724356 H 0.0 **** 0.06
2603 H 153.75568509918463 76.99042262093229 3.63564901091911 H 0.0 **** 0.06
2604 H 152.9816822402346 77.07346382232936 2.0347288478396592 H 0.0 **** 0.06
2605 H 154.69991574352252 77.50249517346049 2.2163971654903207 H 0.0 **** 0.06
2606 C 130.7208545810115 32.19294145338108 122.02027249463578 C 0.0 **** -0.24
2607 H 130.184570402718 32.96697995539478 122.57001203205624 H 0.0 **** 0.06
2608 H 130.05831834166258 31.75335384853605 121.2735808751911 H 0.0 **** 0.06
2609 H 131.05203852251918 31.419265275368957 122.7120963070488 H 0.0 **** 0.06
2610 H 131.58580968251727 32.631934439814074 121.5245309879275 H 0.0 **** 0.06
2611 C 107.24890838657723 21.13606614692395 144.16151613001148 C 0.0 **** -0.24
2612 H 108.20600665940106 20.669365631805043 143.92957784649525 H 0.0 **** 0.06
2613 H 107.23371750167485 22.15102980818409 143.76230953072798 H 0.0 **** 0.06
2614 H 107.11315253741273 21.168353759542683 145.24239248984475 H 0.0 **** 0.06
2615 H 106.4431848988807 20.555845043705013 143.7109431485551 H 0.0 **** 0.06
2616 C 16.582835392308596 124.48362630403969 157.9571452641042 C 0.0 **** -0.24
2617 H 16.33677988915605 125.51040519611885 158.22716682031756 H 0.0 **** 0.06
2618 H 16.551784186174814 124.37646596688788 156.87254194396138 H 0.0 **** 0.06
2619 H 15.859872938566355 123.80619069193449 158.4105304305549 H 0.0 **** 0.06
2620 H 17.582261123927424 124.24353059674053 158.31786270107503 H 0.0 **** 0.06
2621 C 79.35801179782527 38.42485659679102 94.63018953521936 C 0.0 **** -0.24
2622 H 78.8543170068692 39.388779050046935 94.55185726599973 H 0.0 **** 0.06
2623 H 79.43588570337474 38.14055967342847 95.67896631388533 H 0.0 **** 0.06
2624 H 80.35658216249499 38.50098152779242 94.19913838172698 H 0.0 **** 0.06
2625 H 78.78564283396025 37.67109163145204 94.08984058189787 H 0.0 **** 0.06
2626 C 100.09192754177303 27.99750250204167 94.22961037389106 C 0.0 **** -0.24
2627 H 100.85667370119091 27.292183231123715 93.90540384542098 H 0.0 **** 0.06
2628 H 99.10500411437252 27.594646030119435 94.0015628484388 H 0.0 **** 0.06
2629 H 100.22730652699744 28.94523545348156 93.70772756836499 H 0.0 **** 0.06
2630 H 100.17874707068194 28.15889065669316 95.3040726055944 H 0.0 **** 0.06
2631 C 94.83527194453849 24.71909757264433 55.57377702506007 C 0.0 **** -0.24
2632 H 93.74884579452879 24.774487520501502 55.64465748474878 H 0.0 **** 0.06
2633 H 95.21558422629491 24.04519065311421 56.341364078305716 H 0.0 **** 0.06
2634 H 95.25919199241466 25.71341889340458 55.71953643667092 H 0.0 **** 0.06
2635 H 95.11627944605141 24.344837432517153 54.58909382542197 H 0.0 **** 0.06
2636 C 71.06884804732204 158.5133833081428 76.23928545187351 C 0.0 **** -0.24
2637 H 71.67315063033459 157.9637493305798 76.96119593440565 H 0.0 **** 0.06
2638 H 70.45317992997536 159.2447070375827 76.76308620824457 H 0.0 **** 0.06
2639 H 70.42709047220285 157.81738897646267 75.69859609914471 H 0.0 **** 0.06
2640 H 71.72330560874491 159.02660122653674 75.53406736309368 H 0.0 **** 0.06
2641 C 117.53173620228128 3.138181648716831 143.8578030584806 C 0.0 **** -0.24
2642 H 118.58935182394129 3.0299685485926773 143.6209889445367 H 0.0 **** 0.06
2643 H 117.3849931041041 4.030019820061611 144.4674693690616 H 0.0 **** 0.06
2644 H 117.19217614412301 2.2605270055764493 144.40903548716713 H 0.0 **** 0.06
2645 H 116.96005080302177 3.2300124456918695 142.933881098221 H 0.0 **** 0.06
2646 C 4.560838125835772 77.49778640403292 83.46409607247061 C 0.0 **** -0.24
2647 H 4.197621936895253 77.6987941715542 84.47205774826708 H 0.0 **** 0.06
2648 H 4.118774465589688 78.21210607058345 82.76949979316647 H 0.0 **** 0.06
2649 H 4.280263092050028 76.48550480147495 83.17309012062363 H 0.0 **** 0.06
2650 H 5.646448949409766 77.5937328713731 83.44371782047403 H 0.0 **** 0.06
2651 C 126.5094356967204 124.99981241106963 148.45715761183067 C 0.0 **** -0.24
2652 H 125.9031086457436 125.90463823221683 148.47737037423514 H 0.0 **** 0.06
2653 H 126.9272543788814 124.86451131457204 147.4592112012637 H 0.0 **** 0.06
2654 H 125.88829262241947 124.14074777749582 148.70997193330254 H 0.0 **** 0.06
2655 H 127.31926330331993 125.08825424995706 149.18120328585468 H 0.0 **** 0.06
2656 C 84.93254039521858 47.04781615702932 104.24678059190586 C 0.0 **** -0.24
2657 H 84.58811368587106 46.14961517705491 104.75983625459978 H 0.0 **** 0.06
2658 H 84.86091465749709 46.89943411857078 103.16903275593396 H 0.0 **** 0.06
2659 H 85.96889951220669 47.24558719674498 104.5183007852851 H 0.0 **** 0.06
2660 H 84.31124127139361 47.89379916392744 104.53984200367594 H 0.0 **** 0.06
2661 C 159.8223069715669 108.8662099849179 81.7920678635098 C 0.0 **** -0.24
2662 H 159.1569530570929 109.71771730765141 81.93555413873617 H 0.0 **** 0.06
2663 H 160.3968166450947 109.00482318652291 80.87620440718648 H 0.0 **** 0.06
2664 H 159.23274847178573 107.95255498319108 81.7173004641052 H 0.0 **** 0.06
2665 H 160.50290058066767 108.79049648935555 82.64039485043105 H 0.0 **** 0.06
2666 C 58.48558068703643 96.66896600705527 75.28979477587735 C 0.0 **** -0.24
2667 H 57.77547810804664 96.89700101862843 76.08494459131454 H 0.0 **** 0.06
2668 H 59.42853920286244 97.18032034425775 75.48786266566319 H 0.0 **** 0.06
2669 H 58.082002527787864 97.00688554822784 74.33547989109809 H 0.0 **** 0.06
2670 H 58.65634777486373 95.59305305185202 75.25191637908755 H 0.0 **** 0.06
2671 C 26.30876698814002 100.28404378635727 20.969113926974302 C 0.0 **** -0.24
2672 H 25.464228256415304 100.9724530208293 20.925848001988754 H 0.0 **** 0.06
2673 H 26.01471438991753 99.32232398978388 20.54882836269745 H 0.0 **** 0.06
2674 H 26.614184360886945 100.14940779028706 22.0064307602969 H 0.0 **** 0.06
2675 H 27.140373564270895 100.69353660527335 20.39495801256981 H 0.0 **** 0.06
2676 C 39.482256394141075 144.3908266608967 33.9787587669514 C 0.0 **** -0.24
2677 H 39.03532282575168 143.6311580783539 34.61971420456341 H 0.0 **** 0.06
2678 H 39.95997016916306 143.90932088042487 33.12478767532427 H 0.0 **** 0.06
2679 H 40.226652813406645 144.95074158335598 34.544104750121136 H 0.0 **** 0.06
2680 H 38.706577804660185 145.0713845373695 33.625307768014935 H 0.0 **** 0.06
2681 C 7.525178856729042 72.19717656435932 90.10938954295771 C 0.0 **** -0.24
2682 H 7.144407220565711 72.95872535107401 89.42942392754001 H 0.0 **** 0.06
2683 H 7.067357121007774 71.23640122879124 89.87143806628384 H 0.0 **** 0.06
2684 H 7.2819983069376235 72.47201272200218 91.13581107717431 H 0.0 **** 0.06
2685 H 8.60747032428145 72.12212523145308 90.00023663766159 H 0.0 **** 0.06
2686 C 79.41138985137547 58.58742483799034 117.98280670783717 C 0.0 **** -0.24
2687 H 79.55600022187983 57.638187774525875 118.49818392710597 H 0.0 **** 0.06
2688 H 78.35833692997079 58.866557643281084 118.0248101917301 H 0.0 **** 0.06
2689 H 79.71969360196982 58.487065563361284 116.94236369859973 H 0.0 **** 0.06
2690 H 80.01104602128387 59.35910331541169 118.46640849313704 H 0.0 **** 0.06
2691 C 134.3085934639782 74.45328083270473 39.970712291094614 C 0.0 **** -0.24
2692 H 135.29523125881752 74.26158115326473 40.391209518161304 H 0.0 **** 0.06
2693 H 133.54423432562197 74.18151437396529 40.699844655434376 H 0.0 **** 0.06
2694 H 134.17601186458387 73.85887685834328 39.067143883410665 H 0.0 **** 0.06
2695 H 134.21738440635974 75.51199737748271 39.726382461739504 H 0.0 **** 0.06
2696 C 152.51303556035742 160.41092282478343 140.13253793185802 C 0.0 **** -0.24
2697 H 153.46801354353414 159.92746598233347 139.92555145218955 H 0.0 **** 0.06
2698 H 152.499279953969 161.39970370414972 139.67308168998306 H 0.0 **** 0.06
2699 H 152.38207666181356 160.50884950372395 141.21036073668392 H 0.0 **** 0.06
2700 H 151.70447069663302 159.80778109498303 139.7214786620586 H 0.0 **** 0.06
2701 C 42.43431906422555 51.14641596621949 55.74581070716506 C 0.0 **** -0.24
2702 H 42.82361999329241 51.113161850887934 56.76362052304866 H 0.0 **** 0.06
2703 H 42.22454030223402 50.132803927218475 55.403767770381776 H 0.0 **** 0.06
2704 H 43.172514816776925 51.60612836862346 55.089282436924776 H 0.0 **** 0.06
2705 H 41.51589799182669 51.73318847975433 55.727738414654326 H 0.0 **** 0.06
2706 C 88.15239711305696 84.33611854028844 39.77617867082337 C 0.0 **** -0.24
2707 H 87.23874614005761 84.04987400390068 40.29682712301903 H 0.0 **** 0.06
2708 H 88.64570673623622 83.44285324881186 39.39044346373896 H 0.0 **** 0.06
2709 H 88.81956035765829 84.84888298654738 40.468750451341265 H 0.0 **** 0.06
2710 H 87.90632840929472 85.00222041327821 38.9485571529579 H 0.0 **** 0.06
2711 C 72.91776833484488 161.99548700014586 41.63836154457232 C 0.0 **** -0.24
2712 H 73.78766733985378 162.50935184279572 41.22891129069434 H 0.0 **** 0.06
2713 H 72.10524357534865 162.02173972100235 40.91111522028976 H 0.0 **** 0.06
2714 H 72.6018904462787 162.49169066225102 42.55538548414843 H 0.0 **** 0.06
2715 H 73.17836685944616 160.95930451133532 41.85589117241888 H 0.0 **** 0.06
2716 C 56.486421581898895 105.6846984263614 132.17047880849978 C 0.0 **** -0.24
2717 H 56.022046950126736 106.39066338839217 131.48184063485132 H 0.0 **** 0.06
2718 H 56.13420582068329 104.67676686008534 131.95052681607967 H 0.0 **** 0.06
2719 H 56.219998777425744 105.94714242230668 133.19438256287356 H 0.0 **** 0.06
2720 H 57.5697415287309 105.72497809121185 132.05631970300655 H 0.0 **** 0.06
2721 C 58.165184273162566 15.130918116334016 160.39356259096868 C 0.0 **** -0.24
2722 H 59.205574100127905 14.806946778548934 160.3631250818091 H 0.0 **** 0.06
2723 H 57.67709022975622 14.70430676091371 161.27105668001377 H 0.0 **** 0.06
2724 H 57.65298045509934 14.79378742393368 159.49233897594203 H 0.0 **** 0.06
2725 H 58.12571398028602 16.218881078691993 160.44897513602913 H 0.0 **** 0.06
2726 C 109.97298857931196 42.34395007369386 2.5002865020210976 C 0.0 **** -0.24
2727 H 111.05973085766192 42.40856951791969 2.555652631012329 H 0.0 **** 0.06
2728 H 109.65008524145995 42.51953515648664 1.474018907461847 H 0.0 **** 0.06
2729 H 109.53038640911996 43.09533822124938 3.1542467667546177 H 0.0 **** 0.06
2730 H 109.65252844908386 41.35186888737569 2.818303921618579 H 0.0 **** 0.06
2731 C 83.62468127055061 21.93374566219733 1.2576797635002492 C 0.0 **** -0.24
2732 H 82.71287275643257 21.376770888834066 1.469307124704585 H 0.0 **** 0.06
2733 H 83.76932337964706 22.69657830032788 2.0225502591617897 H 0.0 **** 0.06
2734 H 83.54015672440978 22.41042555611773 0.28035597947251745 H 0.0 **** 0.06
2735 H 84.47461863958345 21.252564169022335 1.2574637335354737 H 0.0 **** 0.06
2736 C 120.68912103731134 155.15140471352623 0.16336955391881247 C 0.0 **** -0.24
2737 H 119.79134083190786 154.78065062568382 -0.3321241307943694 H 0.0 **** 0.06
2738 H 120.44232286837422 155.45263922280384 1.1823442082811653 H 0.0 **** 0.06
2739 H 121.07928740996584 156.00901132379073 -0.3851174316248773 H 0.0 **** 0.06
2740 H 121.44169955438682 154.3634226717083 0.18965129008319082 H 0.0 **** 0.06
2741 C 135.2381559089775 57.81149522121285 39.506580308216854 C 0.0 **** -0.24
2742 H 136.17498929591628 57.2584730438179 39.42851894100846 H 0.0 **** 0.06
2743 H 134.50199326916348 57.20434220354785 40.033105357606956 H 0.0 **** 0.06
2744 H 134.8702817641572 58.044192115802346 38.50739983560868 H 0.0 **** 0.06
2745 H 135.40695567565254 58.736462193267414 40.05691616913688 H 0.0 **** 0.06
2746 C 135.5648140468356 7.962704301909923 122.64008181527709 C 0.0 **** -0.24
2747 H 134.82097377709331 7.348305645117108 122.13292720753088 H 0.0 **** 0.06
2748 H 136.3332232617617 8.263839382948788 121.9271674894901 H 0.0 **** 0.06
2749 H 136.02132418530948 7.389587517558681 123.44586866188274 H 0.0 **** 0.06
2750 H 135.08264333734948 8.849086718231462 123.05175457465441 H 0.0 **** 0.06
2751 C 155.31384527715898 65.23064806719293 82.26489038740166 C 0.0 **** -0.24
2752 H 154.86380649029252 64.2374310890342 82.27717910672362 H 0.0 **** 0.06
2753 H 155.2219940500639 65.65862764071937 81.26625195625464 H 0.0 **** 0.06
2754 H 156.36873872509975 65.15426298972113 82.5316450319044 H 0.0 **** 0.06
2755 H 154.80219228599603 65.86964157798326 82.98397059003095 H 0.0 **** 0.06
2756 C 63.580724371832034 4.698294409182381 84.31746861775446 C 0.0 **** -0.24
2757 H 64.20843184934353 5.508450689210349 84.68752666278732 H 0.0 **** 0.06
2758 H 63.910180828357056 3.7559957292110084 84.75555936820288 H 0.0 **** 0.06
2759 H 63.66195263164134 4.642364806014939 83.23214208078201 H 0.0 **** 0.06
2760 H 62.54408073116262 4.885849735415775 84.59594086984549 H 0.0 **** 0.06
2761 C 103.14137585679643 36.96321046423405 107.93426307845641 C 0.0 **** -0.24
2762 H 103.17217355284504 36.376598011864274 108.85252403999772 H 0.0 **** 0.06
2763 H 102.19754952440059 37.507312907117026 107.88279188101538 H 0.0 **** 0.06
2764 H 103.22393719666417 36.29791997771618 107.07518448499243 H 0.0 **** 0.06
2765 H 103.96953199170653 37.670999012704044 107.92736343140959 H 0.0 **** 0.06
2766 C 62.81708438485998 95.22967267302454 103.18160297396824 C 0.0 **** -0.24
2767 H 63.82621141402464 94.82009370153412 103.1551734175276 H 0.0 **** 0.06
2768 H 62.198747459615305 94.71729944517358 102.44408416115462 H 0.0 **** 0.06
2769 H 62.85027915620101 96.29435783041862 102.95133255473891 H 0.0 **** 0.06
2770 H 62.392863088142164 95.08502639783785 104.17468885762787 H 0.0 **** 0.06
2771 C 70.61247961745977 137.31887459167353 36.95280551338149 C 0.0 **** -0.24
2772 H 70.70932737278281 137.4922474776111 38.024394613603164 H 0.0 **** 0.06
2773 H 69.55845894541858 137.19869716918203 36.69889860264459 H 0.0 **** 0.06
2774 H 71.15727127904972 136.41571122193665 36.67930815541979 H 0.0 **** 0.06
2775 H 71.02182235231533 138.16969106764697 36.40840244839049 H 0.0 **** 0.06
2776 C 12.521245375345956 112.31381227603066 110.07800897637037 C 0.0 **** -0.24
2777 H 12.154721419847647 111.68336763211386 109.26767533697762 H 0.0 **** 0.06
2778 H 13.357214006196841 112.91498777585284 109.71972509692773 H 0.0 **** 0.06
2779 H 12.852713995372994 111.68577915279874 110.90451897948918 H 0.0 **** 0.06
2780 H 11.721173540482539 112.97006513959505 110.418069328922 H 0.0 **** 0.06
2781 C 83.63442322787805 57.20241468674226 1.251795107924437 C 0.0 **** -0.24
2782 H 84.02374246813844 56.96989742036567 0.25986005452023164 H 0.0 **** 0.06
2783 H 84.33460283836413 56.849167466704316 2.0092241736242045 H 0.0 **** 0.06
2784 H 82.67179710793432 56.70968041724386 1.3876470215068082 H 0.0 **** 0.06
2785 H 83.5069955696696 58.28041717305818 1.3477204436013892 H 0.0 **** 0.06
2786 C 106.97445969829528 80.30671006839708 129.1585118856783 C 0.0 **** -0.24
2787 H 106.26217289172874 81.06115910337337 128.82688111642048 H 0.0 **** 0.06
2788 H 106.9720435324227 80.25900826445015 130.24831535961468 H 0.0 **** 0.06
2789 H 107.97231875158099 80.56979892949816 128.8083642026397 H 0.0 **** 0.06
2790 H 106.69085416075163 79.33554609322664 128.75150411811157 H 0.0 **** 0.06
2791 C 53.39720503140181 99.06777255704597 152.38136795376016 C 0.0 **** -0.24
2792 H 53.282861733307215 99.53749896472877 153.35884971869473 H 0.0 **** 0.06
2793 H 53.14665995574188 99.78822134104044 151.6020614659982 H 0.0 **** 0.06
2794 H 52.731066096999044 98.20783994200434 152.31060300825857 H 0.0 **** 0.06
2795 H 54.429345613776604 98.73941368920822 152.25441850448374 H 0.0 **** 0.06
2796 C 42.712736140811785 74.92957654049715 133.37470400092806 C 0.0 **** -0.24
2797 H 41.64592134210642 75.12977058175152 133.276722487122 H 0.0 **** 0.06
2798 H 43.13550328418677 75.57783047342025 134.1429335683213 H 0.0 **** 0.06
2799 H 43.20698221573622 75.12429169578101 132.4225214007687 H 0.0 **** 0.06
2800 H 42.86310474834073 73.88766454954342 133.65518484416128 H 0.0 **** 0.06
2801 C 162.84163196521942 80.6934578436701 61.29117500352146 C 0.0 **** -0.24
2802 H 163.50038821327718 81.34934026390238 60.721587146771 H 0.0 **** 0.06
2803 H 162.490470536123 79.88565295138463 60.648680817156176 H 0.0 **** 0.06
2804 H 161.9878746461951 81.26451713646807 61.65678626938154 H 0.0 **** 0.06
2805 H 163.3881491255496 80.27494330992918 62.13606873749282 H 0.0 **** 0.06
2806 C 113.24857063338408 142.0885734987994 75.44493012638064 C 0.0 **** -0.24
2807 H 114.11671923605093 141.9396400968687 76.08671723350585 H 0.0 **** 0.06
2808 H 112.61166116716043 142.8651225406146 75.86849921533391 H 0.0 **** 0.06
2809 H 112.68713415725176 141.15754590082506 75.37189226960703 H 0.0 **** 0.06
2810 H 113.57962703798898 142.3919841181985 74.45148836994977 H 0.0 **** 0.06
2811 C 47.473565727128005 23.15363182772029 7.73205030409099 C 0.0 **** -0.24
2812 H 48.05301559292356 23.6986271869402 6.986249530098064 H 0.0 **** 0.06
2813 H 46.46685056292961 23.571686643907753 7.785685142372358 H 0.0 **** 0.06
2814 H 47.95724865066559 23.244075150213234 8.704434835787993 H 0.0 **** 0.06
2815 H 47.416357396857066 22.102580770010206 7.449985205166115 H 0.0 **** 0.06
2816 C 4.976000275020503 2.5973911235782126 154.2853459393034 C 0.0 **** -0.24
2817 H 5.5373421031762575 3.3079704071267173 154.8919012003249 H 0.0 **** 0.06
2818 H 4.495847299195475 3.1236527113134755 153.45977962105215 H 0.0 **** 0.06
2819 H 4.21483159628486 2.116449965485799 154.90162896912165 H 0.0 **** 0.06
2820 H 5.654077457436685 1.8408610242044787 153.8903061922263 H 0.0 **** 0.06
2821 C 104.52616234029597 48.305275196112405 127.77912238997229 C 0.0 **** -0.24
2822 H 105.31068129939513 49.04970974140883 127.63653163532655 H 0.0 **** 0.06
2823 H 104.96434580107677 47.307945932931204 127.75916192347952 H 0.0 **** 0.06
2824 H 103.79004362398689 48.395838270496185 126.980880950554 H 0.0 **** 0.06
2825 H 104.04045044351659 48.47098602789096 128.74126466603906 H 0.0 **** 0.06
2826 C 89.37126837839554 25.385613215711572 77.98681855716475 C 0.0 **** -0.24
2827 H 88.96988805941608 24.394747860856086 77.77671260131223 H 0.0 **** 0.06
2828 H 88.54918177855122 26.087096018268397 78.13329856934519 H 0.0 **** 0.06
2829 H 89.98467049154463 25.715096325544152 77.14840363987972 H 0.0 **** 0.06
2830 H 89.98179362608397 25.34701234322256 78.8895936036964 H 0.0 **** 0.06
2831 C 0.6147793371642081 21.708284750834764 116.72251108873485 C 0.0 **** -0.24
2832 H 1.6602839194921657 21.72978773065728 116.41388726126442 H 0.0 **** 0.06
2833 H 0.47135209364191866 20.92458920783713 117.46657008223517 H 0.0 **** 0.06
2834 H -0.01591440274111733 21.507963800177322 115.85650948837423 H 0.0 **** 0.06
2835 H 0.344909581448789 22.67315100064127 117.15416065919186 H 0.0 **** 0.06
2836 C 94.16496808995376 98.7285055570647 48.93307546003149 C 0.0 **** -0.24
2837 H 94.24837762372366 98.30167679830436 47.93349558716247 H 0.0 **** 0.06
2838 H 93.61842219661406 98.03894753664915 49.577334114736715 H 0.0 **** 0.06
2839 H 93.63200464561514 99.67705900709097 48.88030113220613 H 0.0 **** 0.06
2840 H 95.1625223559793 98.89375208057817 49.34161060603303 H 0.0 **** 0.06
2841 C 1.9313979055441735 156.0157656080689 126.83329351604365 C 0.0 **** -0.24
2842 H 2.8554626542627375 155.560197522345 127.18959524773442 H 0.0 **** 0.06
2843 H 1.4552851302601084 156.55870673646118 127.64903390119309 H 0.0 **** 0.06
2844 H 1.259033244963149 155.2370557895697 126.47209182354743 H 0.0 **** 0.06
2845 H 2.1579906640862987 156.70592144608102 126.01965075390805 H 0.0 **** 0.06
2846 C 145.98845802184124 92.32016184358206 58.58548356143851 C 0.0 **** -0.24
2847 H 146.5281507713661 93.16116146232945 59.02139209226631 H 0.0 **** 0.06
2848 H 144.92458466473204 92.55701255015788 58.54126668246681 H 0.0 **** 0.06
2849 H 146.13855738519263 91.43354182318433 59.20019644401924 H 0.0 **** 0.06
2850 H 146.3608682568239 92.13227348446999 57.57888015823859 H 0.0 **** 0.06
2851 C 20.784502654169984 32.41530238120089 11.985855936491163 C 0.0 **** -0.24
2852 H 21.226901291774425 31.54110385036222 11.507072830747205 H 0.0 **** 0.06
2853 H 21.132565933742114 33.31874976823951 11.484656732413697 H 0.0 **** 0.06
2854 H 21.079979355509295 32.442936085002 13.034303707944616 H 0.0 **** 0.06
2855 H 19.698189850511568 32.35564740109584 11.91560890133377 H 0.0 **** 0.06
2856 C 126.5586143472674 33.12413651527419 51.968135606058354 C 0.0 **** -0.24
2857 H 125.91581451651649 32.96903117835734 52.83401754646147 H 0.0 **** 0.06
2858 H 126.15803101113488 33.93486705919389 51.35918745887295 H 0.0 **** 0.06
2859 H 126.597629414035 32.209475811801326 51.37585990793934 H 0.0 **** 0.06
2860 H 127.56276886202659 33.38223284890802 52.303208467017924 H 0.0 **** 0.06
2861 C 13.724407099851987 159.20502532240073 151.07993145681266 C 0.0 **** -0.24
2862 H 13.957454953438969 160.23918396479866 150.82395393250727 H 0.0 **** 0.06
2863 H 14.6325418530391 158.70043177708482 151.4116519988422 H 0.0 **** 0.06
2864 H 13.324606022055093 158.69539210284324 150.2031652729488 H 0.0 **** 0.06
2865 H 12.984593248167869 159.18662323279443 151.87985812037155 H 0.0 **** 0.06
2866 C 122.35141320773735 120.46122542960092 98.38186633667164 C 0.0 **** -0.24
2867 H 122.34563665202907 119.42693466307469 98.03933740672096 H 0.0 **** 0.06
2868 H 123.15141031722752 120.59973940367934 99.10962686134212 H 0.0 **** 0.06
2869 H 121.39325639972026 120.69532065837072 98.84595341388945 H 0.0 **** 0.06
2870 H 122.51465597152023 121.12417938291492 97.53159888333278 H 0.0 **** 0.06
2871 C 53.59729783981231 110.1724754371505 29.200289942643394 C 0.0 **** -0.24
2872 H 54.58889799104759 109.7215782028938 29.21797167305158 H 0.0 **** 0.06
2873 H 52.85758349641378 109.4131937434957 28.94278671382847 H 0.0 **** 0.06
2874 H 53.57384475757351 110.96909272589932 28.456056960193905 H 0.0 **** 0.06
2875 H 53.367342549971795 110.58547739622702 30.181820769809065 H 0.0 **** 0.06
2876 C 51.35276355630123 29.642321941291648 142.79207910065875 C 0.0 **** -0.24
2877 H 51.715654314860956 28.817350799646334 143.4051270339323 H 0.0 **** 0.06
2878 H 50.38384218434862 29.38000184289067 142.3677650853385 H 0.0 **** 0.06
2879 H 52.061739543525334 29.836029083960888 141.9880017372752 H 0.0 **** 0.06
2880 H 51.24997499130262 30.53513020307146 143.409740664118 H 0.0 **** 0.06
2881 C 120.85919508329633 73.06996224192237 47.8085735183991 C 0.0 **** -0.24
2882 H 121.23617134542795 73.19477849604807 46.79373725538426 H 0.0 **** 0.06
2883 H 121.62222233231068 73.38465584438305 48.52137520664132 H 0.0 **** 0.06
2884 H 120.613608746968 72.02108972268964 47.97759326052869 H 0.0 **** 0.06
2885 H 119.96477790847857 73.67932490456867 47.941588351042185 H 0.0 **** 0.06
2886 C 92.08140612296636 113.52062387202326 55.290254179114896 C 0.0 **** -0.24
2887 H 91.01998513107243 113.47010854132625 55.047875282434745 H 0.0 **** 0.06
2888 H 92.39131958939802 114.56335128570049 55.34945723359476 H 0.0 **** 0.06
2889 H 92.65533117763245 113.01448076662228 54.51364291064991 H 0.0 **** 0.06
2890 H 92.25898429919927 113.0326258523269 56.24951318109083 H 0.0 **** 0.06
2891 C 105.16642917194639 56.96847554119415 40.39837911706441 C 0.0 **** -0.24
2892 H 105.79057585618341 56.15196373362163 40.76262939572938 H 0.0 **** 0.06
2893 H 104.36253115730312 57.154923275936895 41.11040094031121 H 0.0 **** 0.06
2894 H 104.74124756664918 56.69613139332597 39.43227294801541 H 0.0 **** 0.06
2895 H 105.77260844076477 57.86786127324331 40.28877134915555 H 0.0 **** 0.06
2896 C 53.796914010996176 4.721223737311448 69.78241411364962 C 0.0 **** -0.24
2897 H 54.32920615418925 4.7392695873454045 70.73325388305238 H 0.0 **** 0.06
2898 H 52.77591540580673 4.373178139117556 69.94444811563238 H 0.0 **** 0.06
2899 H 54.30590475795488 4.047441178418353 69.09381676239747 H 0.0 **** 0.06
2900 H 53.77583950152783 5.725301685901513 69.35965038378612 H 0.0 **** 0.06
2901 C 71.8924193498205 26.25893661031415 119.05382396666161 C 0.0 **** -0.24
2902 H 71.12645066211695 27.023044200385982 118.92300958119628 H 0.0 **** 0.06
2903 H 71.78234485926583 25.497232241533936 118.28128273926123 H 0.0 **** 0.06
2904 H 71.7840410156208 25.799620015964138 120.03659111722132 H 0.0 **** 0.06
2905 H 72.87919984255511 26.716307613896902 118.97393706864321 H 0.0 **** 0.06
2906 C 35.289747116562154 122.81772468519961 116.45089263737671 C 0.0 **** -0.24
2907 H 34.76082385386758 123.35840279554105 115.6656708622728 H 0.0 **** 0.06
2908 H 35.71959277328227 123.52942805478966 117.15570245521448 H 0.0 **** 0.06
2909 H 36.08447778885609 122.21872696983712 116.00694474315671 H 0.0 **** 0.06
2910 H 34.59198542707969 122.16435198655262 116.97400598696467 H 0.0 **** 0.06
2911 C 97.2320792994752 113.76827087585812 55.33416233328933 C 0.0 **** -0.24
2912 H 97.37765205725378 112.80271116422989 54.85109625749254 H 0.0 **** 0.06
2913 H 97.90288120331687 114.50293641428371 54.887757544975784 H 0.0 **** 0.06
2914 H 97.44918904265114 113.67843353275478 56.39853748665411 H 0.0 **** 0.06
2915 H 96.19962586274647 114.08978564425135 55.199826974058396 H 0.0 **** 0.06
2916 C 141.07278414369495 90.50178127842074 67.62774055367993 C 0.0 **** -0.24
2917 H 141.49707984413408 90.33857244620174 68.61912641905508 H 0.0 **** 0.06
2918 H 140.060334864702 90.89429122058964 67.72650938445048 H 0.0 **** 0.06
2919 H 141.0467411913114 89.55827409596759 67.0837205364366 H 0.0 **** 0.06
2920 H 141.6894688708323 91.21784824646535 67.08431631026133 H 0.0 **** 0.06
2921 C 155.50307803187945 16.655954874501845 68.78728474830616 C 0.0 **** -0.24
2922 H 155.48402242653947 17.39690764631007 69.58743459388842 H 0.0 **** 0.06
2923 H 155.43436506801737 15.657159628875036 69.21694904317702 H 0.0 **** 0.06
2924 H 156.4341035554414 16.749875383629785 68.22862272417781 H 0.0 **** 0.06
2925 H 154.65922127956165 16.82299290487026 68.11752214242088 H 0.0 **** 0.06
2926 C 79.92080400085212 1.1529602528409129 103.09256643802001 C 0.0 **** -0.24
2927 H 80.94212774653977 1.5325409036489503 103.12544799583554 H 0.0 **** 0.06
2928 H 79.22362288344328 1.9900893145431198 103.06786299667374 H 0.0 **** 0.06
2929 H 79.73009349967157 0.5464296104493087 103.97775903392574 H 0.0 **** 0.06
2930 H 79.78917512524146 0.5438927089681727 102.19847952429245 H 0.0 **** 0.06
2931 C 93.19126360904015 141.47770584422545 37.063876776309485 C 0.0 **** -0.24
2932 H 92.60212442280621 142.38882946921356 37.1667437117527 H 0.0 **** 0.06
2933 H 93.7289877419438 141.28574833057655 37.99199255808281 H 0.0 **** 0.06
2934 H 93.90519045960527 141.5976898362244 36.24827075267456 H 0.0 **** 0.06
2935 H 92.52943630779043 140.64005769611052 36.84669017200241 H 0.0 **** 0.06
2936 C 15.374833012377927 155.7058710112671 114.04010534702641 C 0.0 **** -0.24
2937 H 14.330972567417938 155.50914861633495 113.79385231998538 H 0.0 **** 0.06
2938 H 15.551773532871756 156.7820452333946 114.03765731332086 H 0.0 **** 0.06
2939 H 16.01802005110885 155.2293165127441 113.30080630295842 H 0.0 **** 0.06
2940 H 15.596132298909637 155.30301017048495 115.02838193806124 H 0.0 **** 0.06
2941 C 26.17969860541291 3.5719383714234425 43.288125417578115 C 0.0 **** -0.24
2942 H 25.205480801269516 3.4190750604148548 43.75252539080341 H 0.0 **** 0.06
2943 H 26.92453107092129 2.960830560284137 43.79722135786071 H 0.0 **** 0.06
2944 H 26.45763778617711 4.623328841862872 43.36299698544755 H 0.0 **** 0.06
2945 H 26.129198531097124 3.2830038737961047 42.237325475527584 H 0.0 **** 0.06
2946 C 29.77681873049073 150.06998436513513 101.19957937139668 C 0.0 **** -0.24
2947 H 30.49467686879842 150.23697028927458 100.39730247866743 H 0.0 **** 0.06
2948 H 30.30595537274786 149.98741566893216 102.14937761566387 H 0.0 **** 0.06
2949 H 29.22752681933656 149.14787329145722 101.00791445683257 H 0.0 **** 0.06
2950 H 29.079065599335877 150.90601263318464 101.24325026619931 H 0.0 **** 0.06
2951 C 147.31084483215602 141.54013469000557 100.21876428840832 C 0.0 **** -0.24
2952 H 148.23980604269764 141.3059077092026 100.73939435895988 H 0.0 **** 0.06
2953 H 147.5402308062562 141.96764282950812 99.24227888366428 H 0.0 **** 0.06
2954 H 146.73727066556373 142.25831070771915 100.80488180632841 H 0.0 **** 0.06
2955 H 146.72768205392794 140.6280616146043 100.08866909777521 H 0.0 **** 0.06
2956 C 71.46765047055356 52.87168497405054 27.256863916317116 C 0.0 **** -0.24
2957 H 71.62166970586858 53.78942373970793 27.825074714377195 H 0.0 **** 0.06
2958 H 70.60162523931325 52.34139210172188 27.652371957040884 H 0.0 **** 0.06
2959 H 72.35152678378745 52.23997163919441 27.341980098837723 H 0.0 **** 0.06
2960 H 71.2972681138314 53.11825042569296 26.208739784768625 H 0.0 **** 0.06
2961 C 10.259411819627665 65.8579020814214 9.655384473723757 C 0.0 **** -0.24
2962 H 11.277425573859787 65.5329454364848 9.871851682050277 H 0.0 **** 0.06
2963 H 9.565083671628877 65.34165308524794 10.317938046690443 H 0.0 **** 0.06
2964 H 10.016369597202697 65.62264868445507 8.618346274644523 H 0.0 **** 0.06
2965 H 10.1804422599985 66.93337438605414 9.812295175363602 H 0.0 **** 0.06
2966 C 125.86225138259772 24.323400898551768 3.984599421934149 C 0.0 **** -0.24
2967 H 125.52961433985229 25.282936967574415 3.5899439316672783 H 0.0 **** 0.06
2968 H 125.23649031644356 23.527068985639403 3.580801887590212 H 0.0 **** 0.06
2969 H 125.78516489051708 24.33158346637498 5.071494794799207 H 0.0 **** 0.06
2970 H 126.89969334780864 24.151858718441872 3.695087162681375 H 0.0 **** 0.06
2971 C 99.04399489835112 160.87175132639544 103.53350420705934 C 0.0 **** -0.24
2972 H 98.51438179075762 160.50436265670217 102.65451593806424 H 0.0 **** 0.06
2973 H 98.80264830905651 160.24232397705168 104.39076900202821 H 0.0 **** 0.06
2974 H 98.73987728176485 161.8981534725151 103.73896215564918 H 0.0 **** 0.06
2975 H 100.11790339642778 160.840182687212 103.35060859924121 H 0.0 **** 0.06
2976 C 87.645007833264 158.09968078494325 36.437543536125986 C 0.0 **** -0.24
2977 H 86.76646379418492 158.19245389350266 37.0753643199467 H 0.0 **** 0.06
2978 H 88.01835855043936 159.0926229542211 36.186239024168316 H 0.0 **** 0.06
2979 H 87.37592945191065 157.57054272599993 35.52295531287966 H 0.0 **** 0.06
2980 H 88.41864603398994 157.54189673218247 36.96523827812301 H 0.0 **** 0.06
2981 C 60.47451008097913 161.38115722452824 149.84716809294144 C 0.0 **** -0.24
2982 H 59.61485183747348 160.72123776257695 149.72649127995373 H 0.0 **** 0.06
2983 H 61.37292970205421 160.78272676717543 150.00162216117408 H 0.0 **** 0.06
2984 H 60.31581340395935 162.0286127403979 150.70973089326623 H 0.0 **** 0.06
2985 H 60.59267552299643 161.9906859970006 148.9507750501792 H 0.0 **** 0.06
2986 C 22.21434335454154 141.39641697864965 70.77100385180256 C 0.0 **** -0.24
2987 H 21.745978109930547 140.74256183445576 70.03627651315912 H 0.0 **** 0.06
2988 H 22.807577298966237 142.1539366756877 70.25806206668659 H 0.0 **** 0.06
2989 H 22.86154891076086 140.8062746521412 71.4211006974109 H 0.0 **** 0.06
2990 H 21.444073832829815 141.8812690863254 71.37033692969942 H 0.0 **** 0.06
2991 C 113.09259282935989 157.50796077453927 148.65644082626068 C 0.0 **** -0.24
2992 H 112.53199333213138 157.96929761218738 147.84273915157002 H 0.0 **** 0.06
2993 H 112.43200018803813 156.8557814985361 149.22744555476248 H 0.0 **** 0.06
2994 H 113.48986695102505 158.28501671946165 149.30906795595092 H 0.0 **** 0.06
2995 H 113.91447827683947 156.92274283012355 148.2445414324523 H 0.0 **** 0.06
2996 C 72.23100835067315 21.055177646671723 62.659987151985774 C 0.0 **** -0.24
2997 H 72.31007503251854 21.95901958699642 63.26449941668572 H 0.0 **** 0.06
2998 H 72.4950360043124 20.188674434279676 63.267344935144564 H 0.0 **** 0.06
2999 H 72.91097735824003 21.125906985379885 61.811480026592974 H 0.0 **** 0.06
3000 H 71.20756064772777 20.94864983058463 62.29935922449336 H 0.0 **** 0.06
3001 C 24.196773599030124 102.0156539450982 24.11475350384488 C 0.0 **** -0.24
3002 H 24.5942392566284 102.92088560168693 24.572198048999617 H 0.0 **** 0.06
3003 H 23.131567425764672 101.93530861682692 24.333468657262046 H 0.0 **** 0.06
3004 H 24.7170806617672 101.14653500796567 24.516740663809152 H 0.0 **** 0.06
3005 H 24.344135562703528 102.05923715629518 23.035352359703367 H 0.0 **** 0.06
3006 C 96.49537309612359 147.46015018359938 108.99887546443469 C 0.0 **** -0.24
3007 H 96.30694366945492 147.38255915736616 110.07023902422912 H 0.0 **** 0.06
3008 H 95.95404245296541 146.67099090185175 108.4775582835897 H 0.0 **** 0.06
3009 H 97.56344878198959 147.35450715708302 108.81000587582605 H 0.0 **** 0.06
3010 H 96.15722841543061 148.4326146685494 108.64052107735361 H 0.0 **** 0.06
3011 C 115.59513316377442 23.653994759748535 26.052791415393983 C 0.0 **** -0.24
3012 H 115.60680540414717 24.55281757527039 26.669896093048237 H 0.0 **** 0.06
3013 H 116.10167377854702 22.845177356350398 26.579958264415723 H 0.0 **** 0.06
3014 H 116.10846159225275 23.85337366815577 25.111970582104902 H 0.0 **** 0.06
3015 H 114.56335441036737 23.36658706397842 25.849532251056473 H 0.0 **** 0.06
3016 C 139.15527474221773 12.268711145660035 57.22441806560862 C 0.0 **** -0.24
3017 H 139.76140705790732 13.137244474808824 57.482676343798985 H 0.0 **** 0.06
3018 H 139.14694615816424 11.569085884713616 58.05989216367139 H 0.0 **** 0.06
3019 H 139.5758793211406 11.781650492638448 56.34476554385752 H 0.0 **** 0.06
3020 H 138.13623103895827 12.590085636179595 57.00854488394869 H 0.0 **** 0.06
3021 C 5.215230554555859 56.25176973450107 27.64180405066699 C 0.0 **** -0.24
3022 H 4.901288719455046 56.52700268420497 26.634593435099532 H 0.0 **** 0.06
3023 H 4.459795497029447 55.60780015465211 28.09398649468841 H 0.0 **** 0.06
3024 H 5.334374625156002 57.15206270064685 28.244416790570654 H 0.0 **** 0.06
3025 H 6.164935266874714 55.71893591464368 27.5927740564714 H 0.0 **** 0.06
3026 C 80.87933000527516 38.577286437899815 161.2440493595367 C 0.0 **** -0.24
3027 H 80.70408486959747 39.47851750722417 160.65648101465592 H 0.0 **** 0.06
3028 H 81.13039816615816 37.7524171318687 160.5767561097137 H 0.0 **** 0.06
3029 H 79.97987710656588 38.33047918083821 161.8070533387216 H 0.0 **** 0.06
3030 H 81.70509026676257 38.750340128799095 161.9346188962115 H 0.0 **** 0.06
3031 C 41.169952886055015 138.34987524625816 38.54102284672467 C 0.0 **** -0.24
3032 H 41.77067409089885 137.48859560096597 38.24838438597324 H 0.0 **** 0.06
3033 H 41.772360455159756 139.02218773774368 39.15094567319571 H 0.0 **** 0.06
3034 H 40.307211947935414 138.01148542154573 39.11631434419856 H 0.0 **** 0.06
3035 H 40.82876817969107 138.87442810726395 37.649155639965755 H 0.0 **** 0.06
3036 C 101.17034755478153 123.78754646419969 35.73865509784184 C 0.0 **** -0.24
3037 H 100.33151590733209 123.10589437090297 35.8803087403831 H 0.0 **** 0.06
3038 H 100.88718578155934 124.7857697816338 36.07489091150552 H 0.0 **** 0.06
3039 H 101.43659332499266 123.82106544171563 34.6822453661689 H 0.0 **** 0.06
3040 H 102.02410799234539 123.43667783347348 36.31784259439917 H 0.0 **** 0.06
3041 C 31.88249064038004 157.36565654280625 28.019336419278915 C 0.0 **** -0.24
3042 H 32.76388795245471 157.9065497139751 28.36301533141537 H 0.0 **** 0.06
3043 H 31.615689941735567 156.60261631715838 28.750407448921976 H 0.0 **** 0.06
3044 H 32.096924754094545 156.8926474647771 27.060740417467088 H 0.0 **** 0.06
3045 H 31.052453846852757 158.06286974789307 27.90231272996772 H 0.0 **** 0.06
3046 C 102.15890010362912 158.4247491315346 17.71364494857454 C 0.0 **** -0.24
3047 H 101.29495518200517 157.88514803074466 17.3259754076509 H 0.0 **** 0.06
3048 H 102.10049295176105 159.4698264816134 17.41002712432379 H 0.0 **** 0.06
3049 H 103.07215445869926 157.98058608411793 17.31698067881689 H 0.0 **** 0.06
3050 H 102.16833053599649 158.36139701353392 18.802452313225444 H 0.0 **** 0.06
3051 C 50.50502894146484 60.43773842134344 120.10962326824907 C 0.0 **** -0.24
3052 H 50.39145475812174 61.414239431156204 120.58101435380496 H 0.0 **** 0.06
3053 H 50.23010298022484 60.50828603379459 119.05767242446291 H 0.0 **** 0.06
3054 H 49.856514798290505 59.71650674496708 120.60822849159467 H 0.0 **** 0.06
3055 H 51.54220633180239 60.11326947458619 120.19443377892023 H 0.0 **** 0.06
3056 C 40.62545296829103 62.83120426326302 31.273249120900886 C 0.0 **** -0.24
3057 H 40.617747692417595 61.741143215560186 31.267919626342987 H 0.0 **** 0.06
3058 H 40.55404670311438 63.20015669295263 30.24979168477399 H 0.0 **** 0.06
3059 H 41.553004577885986 63.184928687902584 31.72294778309284 H 0.0 **** 0.06
3060 H 39.77795654095107 63.1975730917208 31.852056968773788 H 0.0 **** 0.06
3061 C 14.453915003166344 158.32280626228916 65.72540846834625 C 0.0 **** -0.24
3062 H 14.03094593547877 158.5481320822805 66.70401118419443 H 0.0 **** 0.06
3063 H 13.79318806244595 158.70564439954305 64.94765740023115 H 0.0 **** 0.06
3064 H 14.558255718690873 157.24287873803058 65.61490756009653 H 0.0 **** 0.06
3065 H 15.432361449052905 158.7936272562158 65.63559215703623 H 0.0 **** 0.06
3066 C 75.78812451737593 49.4997493592856 75.50285666511895 C 0.0 **** -0.24
3067 H 74.75118277723357 49.37390826583294 75.8155957359575 H 0.0 **** 0.06
3068 H 76.20906424884572 50.37995688820615 75.98876437568995 H 0.0 **** 0.06
3069 H 75.82783713129487 49.62671581562307 74.42137469162857 H 0.0 **** 0.06
3070 H 76.36242259508629 48.61815863643011 75.78667589504612 H 0.0 **** 0.06
3071 C 11.082954666631366 105.4835914297912 70.24307037752607 C 0.0 **** -0.24
3072 H 10.886970262344562 104.7269452716923 69.48335361429316 H 0.0 **** 0.06
3073 H 10.544030786581907 105.22901229048165 71.15596050498503 H 0.0 **** 0.06
3074 H 10.749002372144567 106.4557094061083 69.88180685979016 H 0.0 **** 0.06
3075 H 12.152098759491864 105.52058910399077 70.45047557798459 H 0.0 **** 0.06
3076 C 88.00877376178511 101.3897592717556 26.990251044433386 C 0.0 **** -0.24
3077 H 87.31991532748583 102.04374735547111 26.454833895124032 H 0.0 **** 0.06
3078 H 87.74895706373917 100.34920259054013 26.794348137972683 H 0.0 **** 0.06
3079 H 87.93950451573198 101.58647892984527 28.06000194833002 H 0.0 **** 0.06
3080 H 89.02700991947253 101.58031102222012 26.651171388439266 H 0.0 **** 0.06
3081 C 35.84392278301709 143.41819531670092 64.505580362398 C 0.0 **** -0.24
3082 H 35.10697127561906 144.04055463957297 63.99813755813918 H 0.0 **** 0.06
3083 H 35.731999970791094 143.53062470604254 65.58389514353681 H 0.0 **** 0.06
3084 H 36.84619123593984 143.72717546218132 64.20906886400095 H 0.0 **** 0.06
3085 H 35.688565296020556 142.37552231907097 64.23024802278488 H 0.0 **** 0.06
3086 C 79.80116954288376 151.00659314130985 128.01682297694558 C 0.0 **** -0.24
3087 H 80.81506247988628 151.0237391307715 128.41816948679153 H 0.0 **** 0.06
3088 H 79.08673622074026 151.13560528523124 128.829424803839 H 0.0 **** 0.06
3089 H 79.62280670264516 150.05138491270634 127.5227533458793 H 0.0 **** 0.06
3090 H 79.6829186803594 151.81541095437814 127.29602389039238 H 0.0 **** 0.06
3091 C 23.606800152483856 88.22066287278949 45.96136765672328 C 0.0 **** -0.24
3092 H 23.51293712557589 87.13646180140262 46.02308981791968 H 0.0 **** 0.06
3093 H 23.55223122092241 88.64672427652647 46.964318721191844 H 0.0 **** 0.06
3094 H 22.797243672124523 88.62137184594408 45.35117712478129 H 0.0 **** 0.06
3095 H 24.56495607796893 88.47726168869366 45.50918281140923 H 0.0 **** 0.06
3096 C 69.99174376982057 144.2905310305692 88.99764618449441 C 0.0 **** -0.24
3097 H 68.90216362033017 144.27981097920798 88.96213494562498 H 0.0 **** 0.06
3098 H 70.38925576411461 143.9313662454456 88.04822913353483 H 0.0 **** 0.06
3099 H 70.3352785679695 143.64211620374007 89.80466660563762 H 0.0 **** 0.06
3100 H 70.33844257006436 145.30767279833552 89.17609611418547 H 0.0 **** 0.06
3101 C 117.46384102118125 157.15493753051817 37.11594871954466 C 0.0 **** -0.24
3102 H 116.4848833927766 157.6237465125758 37.018163526614444 H 0.0 **** 0.06
3103 H 117.81964332378556 156.8510615843718 36.13106293333209 H 0.0 **** 0.06
3104 H 117.38560838961459 156.2798444702819 37.76014559228305 H 0.0 **** 0.06
3105 H 118.16498781677379 157.8662251200768 37.552261664519946 H 0.0 **** 0.06
3106 C 24.757140427740353 144.18549721212307 40.672938409890094 C 0.0 **** -0.24
3107 H 25.414763700617186 144.46876902452667 41.49454631915907 H 0.0 **** 0.06
3108 H 25.129924276679958 144.6191337037871 39.74384771742447 H 0.0 **** 0.06
3109 H 23.751100903535075 144.55547715108946 40.86973567910502 H 0.0 **** 0.06
3110 H 24.73423679641803 143.09950931045603 40.583408799098095 H 0.0 **** 0.06
3111 C 125.72587643544327 124.66147356392707 87.42302303187728 C 0.0 **** -0.24
3112 H 124.8558908093026 124.75659183959482 86.77468027948392 H 0.0 **** 0.06
3113 H 125.39950097170612 124.41440370000447 88.43421661102789 H 0.0 **** 0.06
3114 H 126.27404777073107 125.60342215331525 87.43771636994857 H 0.0 **** 0.06
3115 H 126.37428744567964 123.86986685614238 87.04731191683415 H 0.0 **** 0.06
3116 C 59.2235867480085 126.50791030535225 116.17360012107355 C 0.0 **** -0.24
3117 H 58.93445986200888 127.51416569730861 116.47897304870773 H 0.0 **** 0.06
3118 H 59.560851546388676 125.94663382757278 117.04441353207014 H 0.0 **** 0.06
3119 H 60.03155275607742 126.56862695215818 115.4438540677373 H 0.0 **** 0.06
3120 H 58.36629066963701 126.00498384920098 115.72545361771526 H 0.0 **** 0.06
3121 C 70.13913044519686 25.457188643800123 145.0715091053689 C 0.0 **** -0.24
3122 H 70.35609053188638 25.927983991204343 144.11264419374115 H 0.0 **** 0.06
3123 H 70.96285180289634 24.798344306437656 145.34739338924734 H 0.0 **** 0.06
3124 H 69.22019069563963 24.87592134096778 144.99009693900678 H 0.0 **** 0.06
3125 H 70.01574767093874 26.225417001459732 145.834444697865 H 0.0 **** 0.06
3126 C 40.07651062131305 65.11416797213857 152.32801766500378 C 0.0 **** -0.24
3127 H 39.146551962576154 64.59310585473527 152.10051597652026 H 0.0 **** 0.06
3128 H 40.729126944671435 64.45790783026256 152.90422459970586 H 0.0 **** 0.06
3129 H 39.857819139333344 66.01050363283402 152.9088767625828 H 0.0 **** 0.06
3130 H 40.57196072274181 65.39491355546018 151.399228703394 H 0.0 **** 0.06
3131 C 45.31993661523819 124.48290022099764 24.802920412140807 C 0.0 **** -0.24
3132 H 44.57569057042252 125.18847773337046 24.433164999005903 H 0.0 **** 0.06
3133 H 46.0438585109805 124.27261559872775 24.01432838548176 H 0.0 **** 0.06
3134 H 44.82702849025759 123.55761853726275 25.100257298895514 H 0.0 **** 0.06
3135 H 45.83346277628527 124.91425507822561 25.661919080052144 H 0.0 **** 0.06
3136 C 153.91308224495546 98.4232375520705 34.60852885497928 C 0.0 **** -0.24
3137 H 154.8283736826688 98.85207352693683 34.20217665953771 H 0.0 **** 0.06
3138 H 154.1001470354205 97.39342005023144 34.91581632386537 H 0.0 **** 0.06
3139 H 153.13470818164058 98.4384781672972 33.84567474351063 H 0.0 **** 0.06
3140 H 153.58951912053016 99.00660673056765 35.47089431094656 H 0.0 **** 0.06
3141 C 71.17874376843565 150.5699142436107 144.11912475750302 C 0.0 **** -0.24
3142 H 70.18662027027506 150.18210887969875 143.888075369852 H 0.0 **** 0.06
3143 H 71.60277043469958 151.0354972724777 143.22956830699763 H 0.0 **** 0.06
3144 H 71.82260757495489 149.75106274124713 144.44230042870203 H 0.0 **** 0.06
3145 H 71.1025705326568 151.30879053796227 144.91647806559064 H 0.0 **** 0.06
3146 C 157.17306069202482 129.26890572060285 114.23659700874987 C 0.0 **** -0.24
3147 H 157.18702744792282 128.31028884928128 113.71730373811909 H 0.0 **** 0.06
3148 H 156.93919338395833 129.1087963945953 115.28923937459979 H 0.0 **** 0.06
3149 H 156.41772565659667 129.91367010008923 113.78908758173975 H 0.0 **** 0.06
3150 H 158.15185128041327 129.74270183779362 114.15017863076366 H 0.0 **** 0.06
3151 C 26.14623506920777 144.3820002250692 121.46192377468091 C 0.0 **** -0.24
3152 H 26.162857331345414 145.36187492834452 121.93782511560826 H 0.0 **** 0.06
3153 H 25.204832500617407 143.88217569679884 121.6925024699932 H 0.0 **** 0.06
3154 H 26.97675081938406 143.78217537596612 121.83401595666945 H 0.0 **** 0.06
3155 H 26.23941107957419 144.50211231277905 120.38251413170013 H 0.0 **** 0.06
3156 C 12.519226011032472 110.09070040341294 81.7649842583686 C 0.0 **** -0.24
3157 H 12.621886621614657 109.6727843022245 80.76278476105298 H 0.0 **** 0.06
3158 H 12.926366358954745 109.38987544830854 82.4945827845653 H 0.0 **** 0.06
3159 H 11.464455173792217 110.26568932404905 81.97841863474906 H 0.0 **** 0.06
3160 H 13.063086473594474 111.03280547202638 81.82190215625573 H 0.0 **** 0.06
3161 C 30.68896967069442 24.15259068627347 91.20784282500045 C 0.0 **** -0.24
3162 H 30.011602060238204 23.84558800382237 92.00505819433656 H 0.0 **** 0.06
3163 H 30.913883837292076 23.29617436377265 90.57291091675478 H 0.0 **** 0.06
3164 H 31.6131154447191 24.533820820218125 91.64370641278788 H 0.0 **** 0.06
3165 H 30.21806863135712 24.93488808666109 90.61258754924978 H 0.0 **** 0.06
3166 C 140.7717787459657 141.71693566825468 48.15738254428197 C 0.0 **** -0.24
3167 H 141.68044470517913 142.07507756986223 47.67347200607395 H 0.0 **** 0.06
3168 H 140.44826249630566 142.441145440683 48.90555519939437 H 0.0 **** 0.06
3169 H 140.9715611779253 140.76015328732979 48.64049570980893 H 0.0 **** 0.06
3170 H 139.9880980728669 141.58984005137398 47.41105812504702 H 0.0 **** 0.06
3171 C 11.771864991743541 107.83008470930815 91.7550043189216 C 0.0 **** -0.24
3172 H 12.800681291146077 107.58236470769768 91.49278743656836 H 0.0 **** 0.06
3173 H 11.400818096252522 108.60250762223603 91.08197469395638 H 0.0 **** 0.06
3174 H 11.737787339040779 108.19431274803767 92.78221390409685 H 0.0 **** 0.06
3175 H 11.150141923649699 106.93958105836018 91.66432620803303 H 0.0 **** 0.06
3176 C 159.66249392028493 47.59661272098009 135.74943913527386 C 0.0 **** -0.24
3177 H 159.16005602062648 48.32611995117705 136.38409746325118 H 0.0 **** 0.06
3178 H 159.86370429201259 46.692611098347825 136.32333135245995 H 0.0 **** 0.06
3179 H 160.60192531247293 48.015622426224624 135.38787668687718 H 0.0 **** 0.06
3180 H 159.0226646866559 47.35406210202059 134.89990181415033 H 0.0 **** 0.06
3181 C 62.193983755679085 46.75061890942317 4.671126830288358 C 0.0 **** -0.24
3182 H 61.598160373008966 45.92406245541042 5.058023165878701 H 0.0 **** 0.06
3183 H 62.976249072789756 47.00129590037682 5.388473269491378 H 0.0 **** 0.06
3184 H 61.553281747634514 47.617956958255775 4.514412189445402 H 0.0 **** 0.06
3185 H 62.64750465351955 46.458518738817645 3.7238036799324234 H 0.0 **** 0.06
3186 C 17.141383576623127 26.8980067276691 67.45851402747107 C 0.0 **** -0.24
3187 H 16.587136026812487 26.633411538118537 68.35956281910882 H 0.0 **** 0.06
3188 H 17.878567184561064 26.12414331046557 67.24523114886938 H 0.0 **** 0.06
3189 H 17.64812780235559 27.850650160303303 67.61218130031602 H 0.0 **** 0.06
3190 H 16.45073238343764 26.98504873717127 66.6204797579683 H 0.0 **** 0.06
3191 C 132.06369633960952 111.51273854742232 89.17249840962909 C 0.0 **** -0.24
3192 H 133.03076352021066 111.80770689971914 88.7647048247225 H 0.0 **** 0.06
3193 H 131.5362729769129 110.89605429847077 88.44477182069791 H 0.0 **** 0.06
3194 H 131.47424003217805 112.40420012674551 89.38928955815346 H 0.0 **** 0.06
3195 H 132.21417628791858 110.94492318110838 90.09031719956269 H 0.0 **** 0.06
3196 C 161.91113483560378 19.207663343880405 162.64867100874264 C 0.0 **** -0.24
3197 H 161.04616572475425 19.303935083355036 161.99232045500116 H 0.0 **** 0.06
3198 H 161.95872322745478 18.1916136125118 163.0413797641555 H 0.0 **** 0.06
3199 H 161.82040246291555 19.912649968464542 163.47534045130422 H 0.0 **** 0.06
3200 H 162.81969926596088 19.4223778785723 162.08698144167988 H 0.0 **** 0.06
3201 C 63.86413636887248 107.74656529004994 82.83491376752228 C 0.0 **** -0.24
3202 H 64.6831434905711 107.41793210907872 82.19502203695112 H 0.0 **** 0.06
3203 H 62.9171306568535 107.61137350681571 82.31184566774502 H 0.0 **** 0.06
3204 H 63.99659815695301 108.80029279707813 83.08218103083394 H 0.0 **** 0.06
3205 H 63.86052569394819 107.15685754743473 83.75171778318732 H 0.0 **** 0.06
3206 C 110.87617706693754 148.5896916473764 16.410579987498522 C 0.0 **** -0.24
3207 H 110.61331369831498 149.43648431764484 15.7761015422343 H 0.0 **** 0.06
3208 H 110.98672484535666 148.93014170393548 17.440940533091066 H 0.0 **** 0.06
3209 H 111.81511578681489 148.1564724035934 16.067900864791852 H 0.0 **** 0.06
3210 H 110.08770442637092 147.83876164915756 16.357477276689792 H 0.0 **** 0.06
3211 C 83.11219951854883 147.9861864727114 152.4478727284221 C 0.0 **** -0.24
3212 H 82.04250730384886 147.89876844737353 152.2556189040704 H 0.0 **** 0.06
3213 H 83.30482357505339 148.89111764418598 153.02458532472744 H 0.0 **** 0.06
3214 H 83.64709935415772 148.03870110693646 151.4992309330479 H 0.0 **** 0.06
3215 H 83.4529854847891 147.11711289600004 153.01027284202868 H 0.0 **** 0.06
3216 C 52.38232321167126 111.80711284859785 59.92665651043616 C 0.0 **** -0.24
3217 H 53.40285084510589 111.66395000165579 60.28350891856674 H 0.0 **** 0.06
3218 H 52.24475213861268 112.8465462221144 59.62825690174408 H 0.0 **** 0.06
3219 H 51.68080346421027 111.56115985891097 60.722887621085164 H 0.0 **** 0.06
3220 H 52.20328299390843 111.15658637988133 59.070180129766385 H 0.0 **** 0.06
3221 C 105.52426999066296 32.45452400953137 81.78530138383567 C 0.0 **** -0.24
3222 H 106.04185937110859 33.38509064576853 81.55134232887572 H 0.0 **** 0.06
3223 H 106.07776797436847 31.614898969179144 81.36556383288436 H 0.0 **** 0.06
3224 H 104.52107552099508 32.48003091001483 81.35856007833141 H 0.0 **** 0.06
3225 H 105.45609027368994 32.34069571900622 82.86748645179802 H 0.0 **** 0.06
3226 C 36.83791195741827 42.27612561521626 96.65866193825991 C 0.0 **** -0.24
3227 H 36.599944513841876 43.148066889140964 97.26789404975545 H 0.0 **** 0.06
3228 H 37.887361014731994 42.013532619068414 96.79453861125523 H 0.0 **** 0.06
3229 H 36.65244135382338 42.504955148624376 95.60949725250089 H 0.0 **** 0.06
3230 H 36.21079624547258 41.43765754449424 96.96435963855572 H 0.0 **** 0.06
3231 C 28.752113048594936 133.920027624095 68.7150066500586 C 0.0 **** -0.24
3232 H 29.631844574728518 134.06623325137508 68.08787649826797 H 0.0 **** 0.06
3233 H 27.852677706672125 134.04136622453825 68.11135951348825 H 0.0 **** 0.06
3234 H 28.752752092369803 134.65592608599638 69.51939891515099 H 0.0 **** 0.06
3235 H 28.77263672088435 132.9164900501205 69.14046285822855 H 0.0 **** 0.06
3236 C 130.01936921736808 29.26468050006141 80.41692678881415 C 0.0 **** -0.24
3237 H 129.13553735934258 28.987443581441568 79.84292437125566 H 0.0 **** 0.06
3238 H 130.4143265941766 30.208541151506346 80.04175938303506 H 0.0 **** 0.06
3239 H 130.77734432271487 28.48703689156048 80.31431555880704 H 0.0 **** 0.06
3240 H 129.75066467428664 29.373892210563938 81.46795035999469 H 0.0 **** 0.06
3241 C 45.44448956676098 75.79089317147175 4.325186387515181 C 0.0 **** -0.24
3242 H 45.079040280830526 76.67094844858731 3.795374718977726 H 0.0 **** 0.06
3243 H 46.15456433763849 76.0992575429086 5.093161725423414 H 0.0 **** 0.06
3244 H 45.938228270991544 75.12201166340337 3.621384975062064 H 0.0 **** 0.06
3245 H 44.60639138514313 75.27336899523333 4.792192841332614 H 0.0 **** 0.06
3246 C 79.73613211342031 13.336456642356723 82.85463583858795 C 0.0 **** -0.24
3247 H 79.50333690278434 14.295517670907799 83.31779801500257 H 0.0 **** 0.06
3248 H 78.9062893370307 13.027723811792896 82.22053663548 H 0.0 **** 0.06
3249 H 79.8980303102761 12.589181169060225 83.63215833285076 H 0.0 **** 0.06
3250 H 80.63892406721558 13.434951510017925 82.25157090447044 H 0.0 **** 0.06
3251 C 62.39820600075784 72.0108950300104 143.65432066207927 C 0.0 **** -0.24
3252 H 63.40688664481418 71.61068402622352 143.7577632684298 H 0.0 **** 0.06
3253 H 62.43872103743186 72.96355070688878 143.12539573849716 H 0.0 **** 0.06
3254 H 61.96507921781132 72.16218516089823 144.64339718184232 H 0.0 **** 0.06
3255 H 61.78417356730655 71.30799130805754 143.0918045582294 H 0.0 **** 0.06
3256 C 147.46867028034976 153.90326878559304 142.49098326517216 C 0.0 **** -0.24
3257 H 146.7011740228444 154.67648145461243 142.47197027036785 H 0.0 **** 0.06
3258 H 148.36676427802226 154.2959483548642 142.9677597145033 H 0.0 **** 0.06
3259 H 147.70252910619962 153.59889975783915 141.4700589554718 H 0.0 **** 0.06
3260 H 147.10460231460044 153.0427785218766 143.05195729804402 H 0.0 **** 0.06
3261 C 91.25483921166199 25.445564738954317 19.562613810774423 C 0.0 **** -0.24
3262 H 91.06145202848359 24.509887494357002 19.038226224811638 H 0.0 **** 0.06
3263 H 92.16370012488477 25.90170232170351 19.16841938732904 H 0.0 **** 0.06
3264 H 91.38097343519945 25.245659291346982 20.626703011573625 H 0.0 **** 0.06
3265 H 90.41440917583407 26.124054754760635 19.4179435162863 H 0.0 **** 0.06
3266 C 99.02213143664932 30.597276889531976 84.79252419309567 C 0.0 **** -0.24
3267 H 99.15282735791158 29.758325081779773 85.47592180200725 H 0.0 **** 0.06
3268 H 98.0444668990664 30.52691104409481 84.31514952612183 H 0.0 **** 0.06
3269 H 99.80156597144048 30.5686739043353 84.03033486862925 H 0.0 **** 0.06
3270 H 99.09004428090157 31.53257038091737 85.34729239500095 H 0.0 **** 0.06
3271 C 117.25552879187256 24.765571855541452 151.95954787075652 C 0.0 **** -0.24
3272 H 116.42804878014039 25.092874711018283 151.3302097094354 H 0.0 **** 0.06
3273 H 118.02805766863821 24.31283322207082 151.3382381966972 H 0.0 **** 0.06
3274 H 116.8943966858966 24.033868506169483 152.68266935766485 H 0.0 **** 0.06
3275 H 117.67072807159226 25.62414473840431 152.48815268037833 H 0.0 **** 0.06
3276 C 131.07181912570832 141.80183265662066 94.77422304618024 C 0.0 **** -0.24
3277 H 130.4792586137694 141.102376657783 94.18443138392198 H 0.0 **** 0.06
3278 H 131.30857885819822 141.35461496841583 95.7393106094296 H 0.0 **** 0.06
3279 H 130.50303941115808 142.71988670765904 94.92734816579718 H 0.0 **** 0.06
3280 H 131.9957693336904 142.03162607022875 94.2433069850689 H 0.0 **** 0.06
3281 C 143.42374509330347 92.8414386212816 102.27846591336697 C 0.0 **** -0.24
3282 H 143.62224610868867 93.51883825545666 103.10879652640017 H 0.0 **** 0.06
3283 H 142.65953256988266 93.27233359904527 101.63255682030172 H 0.0 **** 0.06
3284 H 143.07619420352378 91.88341096482439 102.66585236347566 H 0.0 **** 0.06
3285 H 144.34047352043027 92.68988597874451 101.70723593302046 H 0.0 **** 0.06
3286 C 108.01769475225973 117.48696162636739 129.84944689847566 C 0.0 **** -0.24
3287 H 108.8023228251433 117.07122031551452 129.21770107143118 H 0.0 **** 0.06
3288 H 108.27107282869528 118.51339389060547 130.11510310544827 H 0.0 **** 0.06
3289 H 107.92714023028981 116.88845843549763 130.75592506433435 H 0.0 **** 0.06
3290 H 107.0712415916162 117.47375255386703 129.3100381897632 H 0.0 **** 0.06
3291 C 119.4292653337231 16.369412402372802 152.8894187397349 C 0.0 **** -0.24
3292 H 120.04356999696199 16.51654122184135 151.99983017415857 H 0.0 **** 0.06
3293 H 118.75378927280462 17.217506894077758 153.0068100371645 H 0.0 **** 0.06
3294 H 120.07266768967207 16.292333031360158 153.76574004332514 H 0.0 **** 0.06
3295 H 118.84843751090443 15.453863669205191 152.78299328427528 H 0.0 **** 0.06
3296 C 162.9987461027452 74.20517785656371 60.763863361143294 C 0.0 **** -0.24
3297 H 162.3141317181171 74.89772032094089 61.25220125192776 H 0.0 **** 0.06
3298 H 162.84852932137798 73.20304907038138 61.16469082019323 H 0.0 **** 0.06
3299 H 164.02635828629835 74.51956822886308 60.9467232935129 H 0.0 **** 0.06
3300 H 162.80651034060216 74.20039900226396 59.6910001697172 H 0.0 **** 0.06
3301 C 157.96613359474307 71.71666347238505 134.37507882052222 C 0.0 **** -0.24
3302 H 158.13882197755927 71.18433536058141 133.44018934422473 H 0.0 **** 0.06
3303 H 157.27473805711054 72.54089686857039 134.2012704207202 H 0.0 **** 0.06
3304 H 158.91220104324637 72.10759840174792 134.75043350584517 H 0.0 **** 0.06
3305 H 157.53980151441598 71.03186475750424 135.10874942768038 H 0.0 **** 0.06
3306 C 33.64480361282551 152.16218186673603 87.66630814360258 C 0.0 **** -0.24
3307 H 34.457768235500566 152.38479242427098 86.97457196273103 H 0.0 **** 0.06
3308 H 33.51233130282333 152.9985406482981 88.35196396347658 H 0.0 **** 0.06
3309 H 33.88561246534812 151.2622057469132 88.23130363734134 H 0.0 **** 0.06
3310 H 32.72401719057706 152.00255412096487 87.1053115290037 H 0.0 **** 0.06
3311 C 104.68893396745551 83.52803238859916 11.846013179016325 C 0.0 **** -0.24
3312 H 104.05863740082333 83.22372025440798 12.681957098473788 H 0.0 **** 0.06
3313 H 104.07733999174133 84.0248413196399 11.092244262879632 H 0.0 **** 0.06
3314 H 105.160824547223 82.64737943264515 11.409231156529984 H 0.0 **** 0.06
3315 H 105.4572019021337 84.21347029438735 12.201889662801136 H 0.0 **** 0.06
3316 C 17.990520565795087 10.114385684042425 9.810210430613921 C 0.0 **** -0.24
3317 H 17.567586472265297 10.745919093276406 9.029552290154612 H 0.0 **** 0.06
3318 H 17.71161311277657 10.508418031131846 10.786955518757395 H 0.0 **** 0.06
3319 H 19.076518754830836 10.102134693631001 9.718959701788094 H 0.0 **** 0.06
3320 H 17.605087040243028 9.09970515154616 9.704147671019825 H 0.0 **** 0.06
3321 C 14.858618406928969 86.24818948282471 104.32093916396184 C 0.0 **** -0.24
3322 H 14.94245565707135 85.78788709925568 105.30520786441593 H 0.0 **** 0.06
3323 H 14.67412385123896 85.47719322869504 103.57268426174409 H 0.0 **** 0.06
3324 H 15.785527028129593 86.77041705437735 104.08405179793465 H 0.0 **** 0.06
3325 H 14.031317405767254 86.95923467263479 104.3217788644655 H 0.0 **** 0.06
3326 C 45.18484015709373 42.22133990296712 76.72747909438979 C 0.0 **** -0.24
3327 H 44.41047632716288 41.647209479162285 76.21825931337327 H 0.0 **** 0.06
3328 H 45.49625220897349 43.0530863332781 76.09427666665525 H 0.0 **** 0.06
3329 H 46.04171462471129 41.577812230632674 76.9282729066119 H 0.0 **** 0.06
3330 H 44.79117342424138 42.607399998113934 77.66815225007073 H 0.0 **** 0.06
3331 C 126.47648950570647 80.1464711903943 106.44940627135173 C 0.0 **** -0.24
3332 H 126.6094428139802 80.00147399508205 107.52122391849088 H 0.0 **** 0.06
3333 H 127.38867948784713 80.56312061119992 106.02265863698452 H 0.0 **** 0.06
3334 H 125.647430670631 80.83279278296811 106.27595314709987 H 0.0 **** 0.06
3335 H 126.25946429484202 79.18751509977041 105.97740185215514 H 0.0 **** 0.06
3336 C 90.23200182904517 68.45248903365163 18.17357220048322 C 0.0 **** -0.24
3337 H 89.46383559126792 67.95048190382137 18.761877675056894 H 0.0 **** 0.06
3338 H 89.83298537972499 68.69731285635658 17.189769378632604 H 0.0 **** 0.06
3339 H 91.09277206788431 67.79249898717848 18.063819732878386 H 0.0 **** 0.06
3340 H 90.53731856918668 69.3676493060936 18.68075778384329 H 0.0 **** 0.06
3341 C 39.10632364393405 136.44604398624563 149.45105796834403 C 0.0 **** -0.24
3342 H 39.122875550856335 135.53921425304034 148.84595075025774 H 0.0 **** 0.06
3343 H 38.10488352478032 136.59313171418947 149.85669792308016 H 0.0 **** 0.06
3344 H 39.376342404567865 137.30094762062993 148.83037163170846 H 0.0 **** 0.06
3345 H 39.81966591697801 136.35060543657852 150.26845632923335 H 0.0 **** 0.06
3346 C 138.30102936413437 24.59036996896279 5.796117936774607 C 0.0 **** -0.24
3347 H 137.82725604030549 24.793502117704577 4.835998669649626 H 0.0 **** 0.06
3348 H 139.29760497208275 24.180791050366338 5.629865006744723 H 0.0 **** 0.06
3349 H 137.6997327104055 23.870734981560588 6.3517335198858405 H 0.0 **** 0.06
3350 H 138.3785124693639 25.516074333670133 6.365519925498006 H 0.0 **** 0.06
3351 C 148.4523828013926 138.10650109413822 113.7079423030813 C 0.0 **** -0.24
3352 H 148.06660152269492 138.34956183607028 114.6980635789771 H 0.0 **** 0.06
3353 H 148.86177382828197 139.00603313802256 113.24786083741975 H 0.0 **** 0.06
3354 H 147.644899845369 137.71610003670258 113.08905287290185 H 0.0 **** 0.06
3355 H 149.2366336574188 137.35530714964392 113.79772029230477 H 0.0 **** 0.06
3356 C 122.03736846902453 91.02885677338855 55.641227813713044 C 0.0 **** -0.24
3357 H 122.65386012784688 91.4786413579817 56.41902322047815 H 0.0 **** 0.06
3358 H 121.30837532496932 91.75816249608067 55.28819380669637 H 0.0 **** 0.06
3359 H 121.51758831434591 90.1610074366015 56.04599805385118 H 0.0 **** 0.06
3360 H 122.67060824098238 90.71734324677948 54.810279209928126 H 0.0 **** 0.06
3361 C 31.472432677430106 96.35811360866688 53.89797869804204 C 0.0 **** -0.24
3362 H 30.719781063105074 96.88935720595134 53.315160843033695 H 0.0 **** 0.06
3363 H 32.43620811451456 96.42614959650348 53.3938975025214 H 0.0 **** 0.06
3364 H 31.184822915127484 95.31186235282888 53.994294563816695 H 0.0 **** 0.06
3365 H 31.546460361585986 96.80730521941399 54.888391065070664 H 0.0 **** 0.06
3366 C 150.37193571797 104.81528500392938 156.60096784415748 C 0.0 **** -0.24
3367 H 151.28002378774568 104.42661865320156 157.0616199631384 H 0.0 **** 0.06
3368 H 150.2753059858307 105.87745445228865 156.82867522802655 H 0.0 **** 0.06
3369 H 149.50822701233167 104.27923818901479 156.9925784895048 H 0.0 **** 0.06
3370 H 150.42570138074234 104.6782883997804 155.52029579289518 H 0.0 **** 0.06
3371 C 138.9051101711033 100.46502519401804 154.6403452493847 C 0.0 **** -0.24
3372 H 139.79138882064873 100.02936993960606 154.1794195508427 H 0.0 **** 0.06
3373 H 138.2581367041754 100.87682346250878 153.86551340467088 H 0.0 **** 0.06
3374 H 139.203589803748 101.25944483154089 155.32416481276312 H 0.0 **** 0.06
3375 H 138.36593543876285 99.6947063998987 155.1921898247466 H 0.0 **** 0.06
3376 C 2.0339098567323433 131.59267906685264 153.8942146471987 C 0.0 **** -0.24
3377 H 2.9687745819840146 131.6756894102478 153.33985998961924 H 0.0 **** 0.06
3378 H 2.0689920239691872 130.7133936008611 154.53616333482285 H 0.0 **** 0.06
3379 H 1.2036322653652007 131.4992288170861 153.19386042059767 H 0.0 **** 0.06
3380 H 1.8947891748734946 132.48433267031206 154.5059843425466 H 0.0 **** 0.06
3381 C 23.296355147153108 31.221683956748784 149.2800948169951 C 0.0 **** -0.24
3382 H 22.592888756134236 30.419079204734878 149.50122260735526 H 0.0 **** 0.06
3383 H 23.642867898070463 31.127438776483935 148.25051595064957 H 0.0 **** 0.06
3384 H 24.148878348975572 31.155133037784616 149.95738358632372 H 0.0 **** 0.06
3385 H 22.802614870181728 32.18395015210986 149.41065179379603 H 0.0 **** 0.06
3386 C 98.70787415633478 138.69035135402618 101.48563889779399 C 0.0 **** -0.24
3387 H 99.25204596435813 139.41374259550378 100.87775401037243 H 0.0 **** 0.06
3388 H 99.08846829796397 137.68852033137983 101.28611555552683 H 0.0 **** 0.06
3389 H 97.64657575270928 138.73201356495187 101.23698880365043 H 0.0 **** 0.06
3390 H 98.84333046961333 138.928363842377 102.54017503590387 H 0.0 **** 0.06
3391 C 37.427711277720164 79.56827217719226 117.17724321009678 C 0.0 **** -0.24
3392 H 36.46360206185449 80.06846829741838 117.08137798718579 H 0.0 **** 0.06
3393 H 37.28593901047384 78.48966570268438 117.10739651099325 H 0.0 **** 0.06
3394 H 37.86996708462357 79.81605181172907 118.1420084144107 H 0.0 **** 0.06
3395 H 38.090132759896505 79.90138290660758 116.3775577014083 H 0.0 **** 0.06
3396 C 44.54932088509747 56.19171064181353 75.30865408825004 C 0.0 **** -0.24
3397 H 44.01255730026742 55.516510585614924 75.97382966260858 H 0.0 **** 0.06
3398 H 44.83612536603107 57.08953272018158 75.85612423363914 H 0.0 **** 0.06
3399 H 43.90640027883194 56.465802903966676 74.47177093974673 H 0.0 **** 0.06
3400 H 45.44315065260059 55.69481275099241 74.93186013925582 H 0.0 **** 0.06
3401 C 137.4241568951544 157.8012210579471 87.8334511135827 C 0.0 **** -0.24
3402 H 137.54849803007698 157.56500225403687 88.89064023531017 H 0.0 **** 0.06
3403 H 138.0044245442412 157.10017905742336 87.2342221097879 H 0.0 **** 0.06
3404 H 137.77266710336636 158.81665264113946 87.64582334283675 H 0.0 **** 0.06
3405 H 136.37028793520523 157.7229369762423 87.5660213484312 H 0.0 **** 0.06
3406 C 64.17448408402483 37.74358828713039 25.674159624944842 C 0.0 **** -0.24
3407 H 64.40354661250413 36.67878830449857 25.708338432156523 H 0.0 **** 0.06
3408 H 63.83894604113752 38.07367325176432 26.657773381479757 H 0.0 **** 0.06
3409 H 63.38831372672408 37.92293436094491 24.94142230382453 H 0.0 **** 0.06
3410 H 65.06945421677027 38.29772086039131 25.390542947296964 H 0.0 **** 0.06
3411 C 48.64114017777908 61.48392028626239 93.91547477799287 C 0.0 **** -0.24
3412 H 49.697211348273214 61.749987677071715 93.8644189272845 H 0.0 **** 0.06
3413 H 48.45153850312512 60.62539853774919 93.26997457211388 H 0.0 **** 0.06
3414 H 48.03712314712742 62.32891095214404 93.58265184777912 H 0.0 **** 0.06
3415 H 48.378633615647104 61.231982197033744 94.94269984777844 H 0.0 **** 0.06
3416 C 110.86596161886149 77.7540378748358 102.86421481438552 C 0.0 **** -0.24
3417 H 110.0890166731036 77.0118769852954 102.68457189238003 H 0.0 **** 0.06
3418 H 110.89366930678369 78.4599655377038 102.03368227535594 H 0.0 **** 0.06
3419 H 111.83183343550994 77.25591560840243 102.9496765280823 H 0.0 **** 0.06
3420 H 110.65060394718401 78.28949268605143 103.78932999599942 H 0.0 **** 0.06
3421 C 72.57149494796975 31.624625624235662 60.73559543360132 C 0.0 **** -0.24
3422 H 72.17438727960125 31.260364285153955 59.78817945910578 H 0.0 **** 0.06
3423 H 72.30562114882136 30.928525895850974 61.531767009383245 H 0.0 **** 0.06
3424 H 72.14969732553622 32.60501584246089 60.95329153453598 H 0.0 **** 0.06
3425 H 73.65721816007242 31.702405999580385 60.66858638180277 H 0.0 **** 0.06
3426 C 66.33570022765892 73.69271965814738 96.7227737779894 C 0.0 **** -0.24
3427 H 66.46186178230437 74.38694138045058 97.55297392726555 H 0.0 **** 0.06
3428 H 65.52709021007752 74.03936586954426 96.07847638500624 H 0.0 **** 0.06
3429 H 66.09375194365364 72.70359552032326 97.10933848214799 H 0.0 **** 0.06
3430 H 67.26120709126349 73.64175688523892 96.14852929896249 H 0.0 **** 0.06
3431 C 124.77729335957966 36.62261197203979 157.2037009332957 C 0.0 **** -0.24
3432 H 123.89360379795721 36.342374651925184 157.77673378583503 H 0.0 **** 0.06
3433 H 125.56585303127352 35.888575580053356 157.3709943612581 H 0.0 **** 0.06
3434 H 125.12167781313593 37.60564103475677 157.5252644159633 H 0.0 **** 0.06
3435 H 124.52858209048597 36.65404241303197 156.1426299147189 H 0.0 **** 0.06
3436 C 139.55588891532577 160.47142506138906 6.556028665868503 C 0.0 **** -0.24
3437 H 139.32591455647247 161.2121081413182 5.789101503219953 H 0.0 **** 0.06
3438 H 138.89852291473605 160.6203611239569 7.412848866976233 H 0.0 **** 0.06
3439 H 140.59340837610756 160.58335141246647 6.869235762333446 H 0.0 **** 0.06
3440 H 139.40490448759664 159.47088315594846 6.150844198594612 H 0.0 **** 0.06
3441 C 36.99312584496727 102.57397255409509 98.9256731735461 C 0.0 **** -0.24
3442 H 36.34052858818279 103.4398763662185 99.03233259744331 H 0.0 **** 0.06
3443 H 37.01657141836699 102.01914957148611 99.86335787787903 H 0.0 **** 0.06
3444 H 38.000770245067486 102.90777893968826 98.6757732943064 H 0.0 **** 0.06
3445 H 36.617170455202626 101.93029960118275 98.13093264646557 H 0.0 **** 0.06
3446 C 52.933245174199286 70.12448815638277 108.8898932421227 C 0.0 **** -0.24
3447 H 52.30678507297506 69.97941531518165 109.77032579777858 H 0.0 **** 0.06
3448 H 53.90938124673019 69.67028340128661 109.05971155865168 H 0.0 **** 0.06
3449 H 53.05557658835872 71.19135543298887 108.70294112066256 H 0.0 **** 0.06
3450 H 52.45987711717619 69.65709482645258 108.02692627416218 H 0.0 **** 0.06
3451 C 145.07664627884162 84.68383294413154 111.22393404234012 C 0.0 **** -0.24
3452 H 144.25561267244888 85.14066256093349 111.77673634214895 H 0.0 **** 0.06
3453 H 145.00670072570998 84.96466022927083 110.17300896681212 H 0.0 **** 0.06
3454 H 145.0144244008637 83.59885832452488 111.31495824559673 H 0.0 **** 0.06
3455 H 146.0258439981636 85.02882591598593 111.63178737597292 H 0.0 **** 0.06
3456 C 136.12302399436504 144.4651376404567 27.27656349953176 C 0.0 **** -0.24
3457 H 135.8027020355975 143.51970923920237 27.714393189887147 H 0.0 **** 0.06
3458 H 136.94937809524427 144.87348370953367 27.85916308049127 H 0.0 **** 0.06
3459 H 135.29070899674122 145.16888337290084 27.28353080003339 H 0.0 **** 0.06
3460 H 136.44965115824508 144.29774168747574 26.25032661673768 H 0.0 **** 0.06
3461 C 45.64251538525342 160.91815541927107 157.99032515351422 C 0.0 **** -0.24
3462 H 45.38861900174271 161.93944620954787 158.2752209607763 H 0.0 **** 0.06
3463 H 44.760740079194775 160.42561043247096 157.57982470563613 H 0.0 **** 0.06
3464 H 45.98850899850609 160.37195175327628 158.86740143692887 H 0.0 **** 0.06
3465 H 46.43203288763108 160.9365940726943 157.238964395297 H 0.0 **** 0.06
3466 C 56.280938131271554 115.94935526383256 78.09045429972278 C 0.0 **** -0.24
3467 H 56.84563928908514 116.81658646617211 78.43179208176612 H 0.0 **** 0.06
3468 H 56.66391881738991 115.05276690037329 78.57887623475175 H 0.0 **** 0.06
3469 H 56.38673221630155 115.84855653060896 77.01018947590347 H 0.0 **** 0.06
3470 H 55.228189672806295 116.07887332556317 78.3412123618309 H 0.0 **** 0.06
3471 C 161.2241757819457 102.69060005126497 71.52468498654905 C 0.0 **** -0.24
3472 H 160.83282711702213 102.39055847412735 70.55312999580048 H 0.0 **** 0.06
3473 H 161.2085026313801 101.83626605581438 72.2025460921757 H 0.0 **** 0.06
3474 H 160.60803137232273 103.49128231325514 71.93365544285506 H 0.0 **** 0.06
3475 H 162.24958622849613 103.0435752241255 71.41007769064855 H 0.0 **** 0.06
3476 C 63.2313229839005 148.23672080049437 65.6362406818044 C 0.0 **** -0.24
3477 H 63.23202295253361 147.58446038360648 66.51014270497477 H 0.0 **** 0.06
3478 H 64.12351336368025 148.04384742610785 65.03989341244635 H 0.0 **** 0.06
3479 H 63.22899833707041 149.27741537790985 65.96098713797689 H 0.0 **** 0.06
3480 H 62.34291626954348 148.0401171553293 65.03729383200825 H 0.0 **** 0.06
3481 C 3.7611691296179117 157.3528148453858 96.29865463173773 C 0.0 **** -0.24
3482 H 4.067006461324468 156.4567615038731 96.83840807724644 H 0.0 **** 0.06
3483 H 2.7159924401686055 157.57060123785584 96.51955426206251 H 0.0 **** 0.06
3484 H 3.8816485171542467 157.19121860030677 95.22737491490705 H 0.0 **** 0.06
3485 H 4.381982583219667 158.19338537558264 96.61057887027735 H 0.0 **** 0.06
3486 C 136.9979032450919 52.97577206149026 117.35400331645087 C 0.0 **** -0.24
3487 H 137.57043290458978 52.42092652064491 116.61142332781583 H 0.0 **** 0.06
3488 H 137.40269946073974 53.983405835819894 117.4460252866802 H 0.0 **** 0.06
3489 H 137.06327021836518 52.46810527251 118.3162836510977 H 0.0 **** 0.06
3490 H 135.95514517176363 53.029435581017594 117.04156024111978 H 0.0 **** 0.06
3491 C 80.2826766096423 122.87350620619625 5.524182324374657 C 0.0 **** -0.24
3492 H 80.62656791456254 123.8619808964313 5.221867303415891 H 0.0 **** 0.06
3493 H 80.55696021652244 122.69655205644398 6.564540729714857 H 0.0 **** 0.06
3494 H 80.7479842470915 122.11782394543428 4.8918201184426096 H 0.0 **** 0.06
3495 H 79.19870777519367 122.81868037414077 5.420434698958303 H 0.0 **** 0.06
3496 C 110.03498814416957 108.19129350436867 72.42902622141858 C 0.0 **** -0.24
3497 H 109.71085461273947 108.11689689087922 71.39074279694499 H 0.0 **** 0.06
3498 H 111.10356738265239 107.98303031284127 72.49100798858814 H 0.0 **** 0.06
3499 H 109.48720462158099 107.46750815628752 73.0332082008892 H 0.0 **** 0.06
3500 H 109.83865968570467 109.19727208299065 72.80032677447797 H 0.0 **** 0.06
3501 C 24.82170594416698 88.48398936041377 66.37978270688922 C 0.0 **** -0.24
3502 H 24.62533001825409 88.51287861814521 67.45129133733263 H 0.0 **** 0.06
3503 H 24.847380606962588 87.44709846038481 66.04314794947425 H 0.0 **** 0.06
3504 H 25.782440896203582 88.95685289071517 66.17378678937081 H 0.0 **** 0.06
3505 H 24.032540869505226 89.01811445188852 65.85137310920689 H 0.0 **** 0.06
3506 C 17.82125441068279 77.5271773834051 35.240680279555306 C 0.0 **** -0.24
3507 H 17.434301706441744 78.50660273332304 35.522509047668805 H 0.0 **** 0.06
3508 H 17.202443546796324 76.74990607295001 35.68779128019921 H 0.0 **** 0.06
3509 H 18.846812101177463 77.42602326791814 35.59752921357182 H 0.0 **** 0.06
3510 H 17.802535316277478 77.427860747789 34.15589706476135 H 0.0 **** 0.06
3511 C 12.82012120597767 44.82992418545821 63.78772705459882 C 0.0 **** -0.24
3512 H 11.928163181911714 44.31038703418993 64.13892060533466 H 0.0 **** 0.06
3513 H 12.732496792907625 45.01968972812648 62.7186214405871 H 0.0 **** 0.06
3514 H 13.697624256660731 44.211702643633245 63.97777016529753 H 0.0 **** 0.06
3515 H 12.920650141059241 45.77620002028881 64.31915233547014 H 0.0 **** 0.06
3516 C 93.53977133109582 40.40170349092341 29.02410189005093 C 0.0 **** -0.24
3517 H 93.85489407384708 39.617235129458436 29.711587802241183 H 0.0 **** 0.06
3518 H 94.38419744606935 40.70194457765058 28.404462758419726 H 0.0 **** 0.06
3519 H 93.1819277814958 41.26092223668775 29.59256388329146 H 0.0 **** 0.06
3520 H 92.73769072137738 40.026323620527364 28.388634736607116 H 0.0 **** 0.06
3521 C 3.4709059399062028 99.76291209407418 37.36766841370857 C 0.0 **** -0.24
3522 H 3.3228469159341785 100.12125349386383 38.38679051032197 H 0.0 **** 0.06
3523 H 2.7750026235778193 100.2707524189641 36.69957287585153 H 0.0 **** 0.06
3524 H 3.291795955610496 98.687580379694 37.33103204462111 H 0.0 **** 0.06
3525 H 4.494435076499485 99.97144302920631 37.054830056756344 H 0.0 **** 0.06
3526 C 62.73562071005563 65.28017887011194 149.68796956609026 C 0.0 **** -0.24
3527 H 63.15045170659249 66.17509845182634 150.15317068494468 H 0.0 **** 0.06
3528 H 61.65062263207547 65.37162846992052 149.62916458551354 H 0.0 **** 0.06
3529 H 62.99494565166188 64.40617114633808 150.28569520447996 H 0.0 **** 0.06
3530 H 63.14525339918423 65.16940531200494 148.68397398145638 H 0.0 **** 0.06
3531 C 35.784968729690206 109.25622050700514 55.839739397734704 C 0.0 **** -0.24
3532 H 36.18593490282137 109.1382433964313 54.833745688284324 H 0.0 **** 0.06
3533 H 36.11309795207313 108.42199314691726 56.46120688121856 H 0.0 **** 0.06
3534 H 34.6958901390978 109.27112461585412 55.797661536124934 H 0.0 **** 0.06
3535 H 36.145870162847416 110.19141333284972 56.26718924653858 H 0.0 **** 0.06
3536 C 57.52151917548892 112.1033047191246 128.5505201170473 C 0.0 **** -0.24
3537 H 57.716361532321415 111.29315910373623 129.2536804208346 H 0.0 **** 0.06
3538 H 57.565513170429185 111.71766092819678 127.531393389767 H 0.0 **** 0.06
3539 H 58.27200286595061 112.88288142241265 128.67834118673238 H 0.0 **** 0.06
3540 H 56.53124939251754 112.51686371570707 128.74041366037943 H 0.0 **** 0.06
3541 C 96.24351525225192 88.44515405660349 72.99014916631376 C 0.0 **** -0.24
3542 H 95.6749920167771 87.68513415120573 73.52574221907093 H 0.0 **** 0.06
3543 H 95.88123505642051 88.51467023722157 71.96485584622656 H 0.0 **** 0.06
3544 H 97.29901849413841 88.17287991937117 72.9860797027219 H 0.0 **** 0.06
3545 H 96.11886343356618 89.40774723301035 73.48636098017562 H 0.0 **** 0.06
3546 C 57.84572106481042 4.396980060474391 91.69591179623916 C 0.0 **** -0.24
3547 H 57.24267877114818 4.620088084586712 92.57610476360065 H 0.0 **** 0.06
3548 H 58.66923410605534 5.108560286080319 91.62969447555486 H 0.0 **** 0.06
3549 H 57.2249097710195 4.474569884969071 90.80244715735122 H 0.0 **** 0.06
3550 H 58.24347207584174 3.386216044749176 91.77535381948172 H 0.0 **** 0.06
3551 C 45.71150195461644 73.29349670695825 143.4149590147854 C 0.0 **** -0.24
3552 H 45.54814113380951 74.36821782062441 143.3319310606109 H 0.0 **** 0.06
3553 H 44.98225434333517 72.86877123273649 144.10599092264985 H 0.0 **** 0.06
3554 H 46.71767801914814 73.10698534496731 143.7876948928021 H 0.0 **** 0.06
3555 H 45.59556259949113 72.83209662987159 142.4340421459262 H 0.0 **** 0.06
3556 C 37.682154436229155 2.0838493413400343 137.22424436726726 C 0.0 **** -0.24
3557 H 37.155746311981744 1.2029398541048621 136.85699266302146 H 0.0 **** 0.06
3558 H 38.49879188324297 2.328575607112384 136.5437237981315 H 0.0 **** 0.06
3559 H 38.08409782099618 1.879710942863234 138.215861651478 H 0.0 **** 0.06
3560 H 36.9895083526564 2.9241365154190007 137.2782142066703 H 0.0 **** 0.06
3561 C 76.91273777460914 105.53354638413248 30.272677287846157 C 0.0 **** -0.24
3562 H 77.29750589604845 105.05291068172312 29.372733014018372 H 0.0 **** 0.06
3563 H 75.97050438776061 106.03178424206328 30.044125011698164 H 0.0 **** 0.06
3564 H 77.63552004983883 106.26719040721036 30.62883043964208 H 0.0 **** 0.06
3565 H 76.74817187996251 104.78196614274378 31.044451249261584 H 0.0 **** 0.06
3566 C 59.77871998214265 99.63153215275725 78.39905881084539 C 0.0 **** -0.24
3567 H 59.17308201721396 99.34188037577758 77.53982113355451 H 0.0 **** 0.06
3568 H 60.494836757272495 100.39702058461364 78.09652592342815 H 0.0 **** 0.06
3569 H 60.31462522424809 98.76021624962596 78.775660759516 H 0.0 **** 0.06
3570 H 59.13193802389313 100.02714445696171 79.18181409970767 H 0.0 **** 0.06
3571 C 19.706314882230416 95.86024818916343 98.35688232447987 C 0.0 **** -0.24
3572 H 20.263116034915726 96.78289284128735 98.51978158836943 H 0.0 **** 0.06
3573 H 20.373686283324467 95.0989332098444 97.95281701323464 H 0.0 **** 0.06
3574 H 18.895403832549526 96.04496404039344 97.65176658693122 H 0.0 **** 0.06
3575 H 19.29168549253143 95.51444684885763 99.30460264475428 H 0.0 **** 0.06
3576 C 124.10765502492043 39.566048174324465 109.3036054500266 C 0.0 **** -0.24
3577 H 124.84332512712436 39.82042888220981 108.54117133114187 H 0.0 **** 0.06
3578 H 124.17824305129707 40.275942372377216 110.12783382828397 H 0.0 **** 0.06
3579 H 124.3002412795714 38.55889117933536 109.67307422223513 H 0.0 **** 0.06
3580 H 123.10753969215682 39.6081751891322 108.87099532123528 H 0.0 **** 0.06
3581 C 78.3847152423685 144.86633322312105 17.186535100003 C 0.0 **** -0.24
3582 H 79.12143474215209 145.44054225054936 17.749130206634106 H 0.0 **** 0.06
3583 H 78.16817582639814 143.93722753711188 17.715396342044954 H 0.0 **** 0.06
3584 H 78.7802018480477 144.6389651865327 16.197221732718305 H 0.0 **** 0.06
3585 H 77.46898772352588 145.44974197669606 17.08795411983249 H 0.0 **** 0.06
3586 C 118.03026137031486 131.1720748326253 100.9245426723468 C 0.0 **** -0.24
3587 H 117.26066416330625 130.47441345302863 101.25412055407935 H 0.0 **** 0.06
3588 H 118.74266990387281 131.3357454914937 101.73352405201283 H 0.0 **** 0.06
3589 H 117.56681262903871 132.12000723969828 100.64973674959796 H 0.0 **** 0.06
3590 H 118.54935165207914 130.75765355923997 100.06017576511215 H 0.0 **** 0.06
3591 C 122.7880425371217 59.98136387430503 80.05041264281718 C 0.0 **** -0.24
3592 H 122.01913331003809 60.45744075699031 79.44079694384821 H 0.0 **** 0.06
3593 H 123.45735229459041 59.409288544163786 79.40850603232484 H 0.0 **** 0.06
3594 H 122.31624198099087 59.31370190428561 80.77188239867307 H 0.0 **** 0.06
3595 H 123.35658068840496 60.74579983739801 80.58000860560254 H 0.0 **** 0.06
3596 C 37.20577589073264 79.67914508223498 141.84319668112573 C 0.0 **** -0.24
3597 H 37.89947952755267 79.08102031728048 142.4344055256989 H 0.0 **** 0.06
3598 H 36.79331617880723 80.47551207448551 142.46263711685575 H 0.0 **** 0.06
3599 H 36.397620078152954 79.04439060838102 141.4794374147163 H 0.0 **** 0.06
3600 H 37.733829850325264 80.1151130356597 140.99475762318374 H 0.0 **** 0.06
3601 C 134.85555478213618 122.70215605814656 147.85415826729974 C 0.0 **** -0.24
3602 H 135.13467502716495 122.96749365665715 148.8736839868157 H 0.0 **** 0.06
3603 H 135.50109189918317 121.89928426733354 147.49714483003032 H 0.0 **** 0.06
3604 H 134.96742477499367 123.57341319091665 147.20837425893478 H 0.0 **** 0.06
3605 H 133.81747031637374 122.36898635382886 147.83691093063965 H 0.0 **** 0.06
3606 C 157.13603201390947 159.2930911432116 145.70195553086103 C 0.0 **** -0.24
3607 H 156.94849183332684 158.2835954786031 145.33532757664346 H 0.0 **** 0.06
3608 H 158.15906002350079 159.35971173261981 146.07526011606825 H 0.0 **** 0.06
3609 H 156.43985144201517 159.52070444405908 146.50946383785376 H 0.0 **** 0.06
3610 H 156.9981331432127 160.00618867967685 144.89028712112298 H 0.0 **** 0.06
3611 C 64.94131656154337 53.120074556664676 135.91467352870714 C 0.0 **** -0.24
3612 H 65.32999883608385 52.14354379714746 135.62849251025924 H 0.0 **** 0.06
3613 H 65.08522031405751 53.82306354093926 135.09466253469657 H 0.0 **** 0.06
3614 H 65.47176526416304 53.477548962500265 136.79740570063112 H 0.0 **** 0.06
3615 H 63.878202476574245 53.03610324841493 136.1395448461759 H 0.0 **** 0.06
3616 C 94.82494828838294 113.52395057176452 135.16885873021124 C 0.0 **** -0.24
3617 H 95.55248467119253 113.875875286585 135.9007266714948 H 0.0 **** 0.06
3618 H 94.45654933362215 112.54240458213306 135.46630035772972 H 0.0 **** 0.06
3619 H 95.30072298460628 113.45284227928227 134.19070337025545 H 0.0 **** 0.06
3620 H 93.99286676896439 114.22551862956607 135.11823826423415 H 0.0 **** 0.06
3621 C 102.48472352299001 152.43639188475532 16.46202991135786 C 0.0 **** -0.24
3622 H 102.80177267019047 151.54491640783192 17.00487079340337 H 0.0 **** 0.06
3623 H 103.23252387354839 152.6859083593797 15.70893162019172 H 0.0 **** 0.06
3624 H 102.3773781931221 153.26759701873837 17.158498749816943 H 0.0 **** 0.06
3625 H 101.52812382337854 152.24411652724078 15.975740830243467 H 0.0 **** 0.06
3626 C 23.269350067230846 161.73674011096114 118.508856479933 C 0.0 **** -0.24
3627 H 22.801553990962134 162.47198793562285 119.16388726921349 H 0.0 **** 0.06
3628 H 23.396529996315223 162.16472310222844 117.51414712463554 H 0.0 **** 0.06
3629 H 22.635067290464804 160.85161428642803 118.44524404987459 H 0.0 **** 0.06
3630 H 24.24262953756829 161.45826774405765 118.91263991460517 H 0.0 **** 0.06
3631 C 151.33367555003923 14.339183161133462 141.82073150473542 C 0.0 **** -0.24
3632 H 150.27727055019167 14.231072663462442 141.5731664049651 H 0.0 **** 0.06
3633 H 151.93701503269466 13.840026493595133 141.0624387193987 H 0.0 **** 0.06
3634 H 151.52640400548276 13.886316124380812 142.79443223519803 H 0.0 **** 0.06
3635 H 151.59256493783403 15.397537969528457 141.85454342223204 H 0.0 **** 0.06
3636 C 120.5121260079755 40.08932957616341 130.10785178706558 C 0.0 **** -0.24
3637 H 119.5957730795846 40.62247019836384 130.35964380544658 H 0.0 **** 0.06
3638 H 121.2979028205637 40.366418146463246 130.81052210584403 H 0.0 **** 0.06
3639 H 120.81916019653488 40.3526815149189 129.0960926287034 H 0.0 **** 0.06
3640 H 120.33394946540602 39.01554037743459 130.16615045164397 H 0.0 **** 0.06
3641 C 54.08320164351133 122.56984898929232 85.46724874357882 C 0.0 **** -0.24
3642 H 53.307677584745875 121.9780467182593 84.98124117655702 H 0.0 **** 0.06
3643 H 53.86639161621362 123.63042424077878 85.3346838799483 H 0.0 **** 0.06
3644 H 55.05047689882673 122.337283094268 85.02168107760798 H 0.0 **** 0.06
3645 H 54.10699852774506 122.33408667352035 86.53093087589322 H 0.0 **** 0.06
3646 C 155.28832831809558 124.64401257184494 18.242755255660768 C 0.0 **** -0.24
3647 H 154.99988172023586 125.14056170652054 17.316229283934035 H 0.0 **** 0.06
3648 H 155.52014033321953 123.59891517975393 18.036358791155692 H 0.0 **** 0.06
3649 H 154.46599025997003 124.70102196428931 18.95574606591242 H 0.0 **** 0.06
3650 H 156.1661358911019 125.13622090115544 18.660638805599376 H 0.0 **** 0.06
3651 C 88.04546877879199 8.100375531371299 52.38498719975476 C 0.0 **** -0.24
3652 H 87.62063703819642 8.40478918504354 53.34054416787002 H 0.0 **** 0.06
3653 H 87.61461160517744 7.144630343597612 52.082723806745236 H 0.0 **** 0.06
3654 H 89.12635137421871 7.996915185511966 52.48411161561265 H 0.0 **** 0.06
3655 H 87.82005825824477 8.855216532683698 51.63034418773567 H 0.0 **** 0.06
3656 C 158.96349232388474 47.59437240783447 43.83467253168908 C 0.0 **** -0.24
3657 H 159.43172745315306 46.678267116103456 43.47624711451749 H 0.0 **** 0.06
3658 H 159.12986754137222 47.69121430673833 44.907275800595926 H 0.0 **** 0.06
3659 H 157.89233432896762 47.55750264888046 43.63469991958681 H 0.0 **** 0.06
3660 H 159.40057119633792 48.45059789674977 43.31962508971378 H 0.0 **** 0.06
3661 C 91.72396955329503 143.95720468885594 125.9736703038401 C 0.0 **** -0.24
3662 H 91.604802233018 144.40872351627476 126.95789167818657 H 0.0 **** 0.06
3663 H 90.79369521671777 143.47025812598872 125.68192118949176 H 0.0 **** 0.06
3664 H 92.5255202863363 143.21871475576458 126.00771328233486 H 0.0 **** 0.06
3665 H 91.97409269630128 144.73118775065421 125.24704073208449 H 0.0 **** 0.06
3666 C 108.36865466872072 59.434517824997215 124.02522091094974 C 0.0 **** -0.24
3667 H 109.0337644147705 59.3129737312218 123.16986780542734 H 0.0 **** 0.06
3668 H 107.64221178482441 58.62235086614322 124.03927103827942 H 0.0 **** 0.06
3669 H 107.84610339327818 60.38852624087127 123.94511467926745 H 0.0 **** 0.06
3670 H 108.95347545161354 59.417117318549174 124.94469832761536 H 0.0 **** 0.06
3671 C 28.190661691519963 158.715784758712 62.44372539599698 C 0.0 **** -0.24
3672 H 27.5875998554285 157.92156970379835 62.001151343856236 H 0.0 **** 0.06
3673 H 28.51871687918522 159.40066940723756 61.66101043828945 H 0.0 **** 0.06
3674 H 29.060798117898493 158.27961513076673 62.934326568141614 H 0.0 **** 0.06
3675 H 27.593431098090633 159.25930641692634 63.175643200281115 H 0.0 **** 0.06
3676 C 94.08943765437849 31.627848782479703 61.25372638152214 C 0.0 **** -0.24
3677 H 93.56967867572732 32.57179471875469 61.414631628091996 H 0.0 **** 0.06
3678 H 94.68644943494864 31.69150361141945 60.343678652328094 H 0.0 **** 0.06
3679 H 93.35900254018279 30.823866497522175 61.154162644881126 H 0.0 **** 0.06
3680 H 94.74109676634218 31.422527087055244 62.103315267191476 H 0.0 **** 0.06
3681 C 118.45787726962936 43.887939006794 148.34738227470427 C 0.0 **** -0.24
3682 H 119.09424969029016 43.03368917052842 148.11850635847634 H 0.0 **** 0.06
3683 H 118.9030204043394 44.792853952359906 147.93536122298184 H 0.0 **** 0.06
3684 H 118.36078718170137 43.989273593696566 149.42820125356633 H 0.0 **** 0.06
3685 H 117.47258886992998 43.734174759523 147.90783686460094 H 0.0 **** 0.06
3686 C 70.93408557941757 45.14555994050043 87.42848123764338 C 0.0 **** -0.24
3687 H 70.55774111889241 44.13831615055288 87.25431579197448 H 0.0 **** 0.06
3688 H 71.52867941586351 45.46384864983138 86.57216043089693 H 0.0 **** 0.06
3689 H 71.55357609759733 45.151953687281704 88.32456629712541 H 0.0 **** 0.06
3690 H 70.09459019472217 45.82840211029003 87.56152613605178 H 0.0 **** 0.06
3691 C 116.17782065562315 162.50540281185027 141.5160346196551 C 0.0 **** -0.24
3692 H 117.24969637904942 162.68359924828508 141.4301549491301 H 0.0 **** 0.06
3693 H 115.96272289463792 161.46411685350824 141.27647177402457 H 0.0 **** 0.06
3694 H 115.6445011518577 163.1561520895996 140.82363479529795 H 0.0 **** 0.06
3695 H 115.8552755223107 162.71839135557806 142.5351981849742 H 0.0 **** 0.06
3696 C 149.29460128463478 129.66702370084994 46.823843511239204 C 0.0 **** -0.24
3697 H 148.20871649235696 129.64816698940982 46.915661227943076 H 0.0 **** 0.06
3698 H 149.57129420816233 130.12399270968325 45.87371762092425 H 0.0 **** 0.06
3699 H 149.68063800644842 128.64831869756668 46.86390134763633 H 0.0 **** 0.06
3700 H 149.717802045686 130.2471374320754 47.644277573143455 H 0.0 **** 0.06
3701 C 5.352264568873075 25.402201669166203 160.61935545391634 C 0.0 **** -0.24
3702 H 5.738877106375455 26.267002261296938 161.15929763719714 H 0.0 **** 0.06
3703 H 4.560954587585599 25.72094422947808 159.94176744251024 H 0.0 **** 0.06
3704 H 4.9530380125125575 24.679127609744313 161.33141861957859 H 0.0 **** 0.06
3705 H 6.157766249650976 24.94204440562106 160.04747069566184 H 0.0 **** 0.06
3706 C 140.6099588634844 49.8535044736434 134.84273101921872 C 0.0 **** -0.24
3707 H 140.92789098431797 48.93042796649519 135.32737705738361 H 0.0 **** 0.06
3708 H 140.5033643771131 50.63798893891445 135.59268677032776 H 0.0 **** 0.06
3709 H 139.6521669409032 49.692127867004785 134.34665126550146 H 0.0 **** 0.06
3710 H 141.35541889321587 50.15258017386782 134.10600181508428 H 0.0 **** 0.06
3711 C 31.2503264809784 82.85593131844331 146.67893744726157 C 0.0 **** -0.24
3712 H 31.88270006743494 83.7306075208337 146.5240114332224 H 0.0 **** 0.06
3713 H 30.221485985554438 83.17713042196328 146.84591130999033 H 0.0 **** 0.06
3714 H 31.603297219306 82.3011878147077 147.54750299895557 H 0.0 **** 0.06
3715 H 31.293039850803922 82.21645534868719 145.79704124027262 H 0.0 **** 0.06
3716 C 139.19226346553768 162.08351237852432 83.91285756463354 C 0.0 **** -0.24
3717 H 139.2867340743225 161.0417479308731 84.21760494264966 H 0.0 **** 0.06
3718 H 140.12888684909453 162.41677574846844 83.46541032455457 H 0.0 **** 0.06
3719 H 138.96666528072834 162.69801571497857 84.7839074703734 H 0.0 **** 0.06
3720 H 138.38742669944548 162.17665099791532 83.1835977768349 H 0.0 **** 0.06
3721 C 44.348675354136816 27.013026925530646 152.84203543152063 C 0.0 **** -0.24
3722 H 44.955848717916126 26.108805660658035 152.877450810996 H 0.0 **** 0.06
3723 H 44.98066765093799 27.882476457107714 153.0213900726868 H 0.0 **** 0.06
3724 H 43.5749527831849 26.961341121072827 153.60902947443338 H 0.0 **** 0.06
3725 H 43.88106935784373 27.09856453589289 151.86096111388744 H 0.0 **** 0.06
3726 C 43.91942528584838 54.212067670141494 0.24810039989082 C 0.0 **** -0.24
3727 H 43.09825754214458 53.50955735132197 0.10608757785164258 H 0.0 **** 0.06
3728 H 44.79845479231048 53.67614983943838 0.6056602561087487 H 0.0 **** 0.06
3729 H 43.629519611572334 54.96590911351524 0.9789338857230945 H 0.0 **** 0.06
3730 H 44.15088065148615 54.69624120173984 -0.7010156533367109 H 0.0 **** 0.06
3731 C 101.36975927897399 52.26889204515528 153.49565676628146 C 0.0 **** -0.24
3732 H 101.7291710642437 51.62110408618132 154.29633825032425 H 0.0 **** 0.06
3733 H 102.2182847301678 52.75636887340609 153.01506570162013 H 0.0 **** 0.06
3734 H 100.70449934286142 53.025411748932214 153.91273233919705 H 0.0 **** 0.06
3735 H 100.82784127556482 51.67280359758233 152.7621526670118 H 0.0 **** 0.06
3736 C 26.94122320003902 115.37702517195362 41.30616854817026 C 0.0 **** -0.24
3737 H 27.840908817117537 115.13366698156005 40.74055874302826 H 0.0 **** 0.06
3738 H 26.585053345663454 114.48537337410818 41.82291315333737 H 0.0 **** 0.06
3739 H 26.169827888304923 115.73539209622214 40.62552823516393 H 0.0 **** 0.06
3740 H 27.17098521813321 116.15361731200596 42.03687982558995 H 0.0 **** 0.06
3741 C 18.327281336674645 101.5083609291733 53.358053434254856 C 0.0 **** -0.24
3742 H 19.07977246215262 101.14458814071082 52.65854481112672 H 0.0 **** 0.06
3743 H 18.719016162607517 102.37352231007131 53.89404643949757 H 0.0 **** 0.06
3744 H 18.08202243998852 100.72094344969389 54.0697356662148 H 0.0 **** 0.06
3745 H 17.43017741572538 101.79590052347916 52.810383486248554 H 0.0 **** 0.06
3746 C 118.82199110870346 66.06251851434854 105.5540249646466 C 0.0 **** -0.24
3747 H 118.0990854280428 66.64455235786897 104.9817332024638 H 0.0 **** 0.06
3748 H 119.80037596027779 66.13087288649331 105.07831746934554 H 0.0 **** 0.06
3749 H 118.50415239290888 65.0205828392132 105.58677315715065 H 0.0 **** 0.06
3750 H 118.88202420559844 66.45675738955958 106.56868924736872 H 0.0 **** 0.06
3751 C 57.79651071657035 5.287691620614794 82.1006036116654 C 0.0 **** -0.24
3752 H 56.85102464918276 5.334384005767248 81.56022524942404 H 0.0 **** 0.06
3753 H 58.27021397733252 6.269629063030834 82.08907301125407 H 0.0 **** 0.06
3754 H 58.45251582142461 4.561498339957041 81.62130155956271 H 0.0 **** 0.06
3755 H 57.61040437205524 4.9861669519195 83.13102786177205 H 0.0 **** 0.06
3756 C 81.93182366833605 71.21099332552103 107.17755076802501 C 0.0 **** -0.24
3757 H 82.19245943378871 71.25267697019694 106.11934834483486 H 0.0 **** 0.06
3758 H 80.90110085055869 71.54057780663078 107.30940829597125 H 0.0 **** 0.06
3759 H 82.59800252953517 71.8636020582104 107.74084854847285 H 0.0 **** 0.06
3760 H 82.03607663008609 70.18735149104549 107.53625893475078 H 0.0 **** 0.06
3761 C 80.33293631892008 70.15166521502944 156.69092487610936 C 0.0 **** -0.24
3762 H 80.8577098718137 70.93810815034227 157.23231757083033 H 0.0 **** 0.06
3763 H 80.67771644824292 70.12892247792803 155.65737455242203 H 0.0 **** 0.06
3764 H 79.26113006352189 70.34998096804024 156.71166328858573 H 0.0 **** 0.06
3765 H 80.53280055006378 69.18911823764476 157.16222570930304 H 0.0 **** 0.06
3766 C 3.0998799376429105 147.54045794375625 154.29005112661827 C 0.0 **** -0.24
3767 H 2.6889413495966537 148.5326943799642 154.1038544925498 H 0.0 **** 0.06
3768 H 3.3261790977579793 147.4344555873701 155.3519956209317 H 0.0 **** 0.06
3769 H 4.012669674654056 147.41089699888096 153.7086513413594 H 0.0 **** 0.06
3770 H 2.3709101604547556 146.7848523215585 153.99613773417275 H 0.0 **** 0.06
3771 C 18.546963186755136 133.38302708429637 13.998770668854391 C 0.0 **** -0.24
3772 H 17.494812702237766 133.1135110669794 14.092463466754431 H 0.0 **** 0.06
3773 H 18.981079518156093 133.5052178979626 14.99096130757058 H 0.0 **** 0.06
3774 H 18.635031865898014 134.31805066385442 13.445178146295994 H 0.0 **** 0.06
3775 H 19.076873578313922 132.59408534113953 13.464622026422752 H 0.0 **** 0.06
3776 C 53.54166161667372 110.88982613277972 139.20684468620595 C 0.0 **** -0.24
3777 H 54.29684189343327 110.67847637012312 139.96490598268534 H 0.0 **** 0.06
3778 H 53.45380046639066 111.96814808804112 139.07266179954712 H 0.0 **** 0.06
3779 H 52.58266523697833 110.48362549828786 139.52770108661088 H 0.0 **** 0.06
3780 H 53.834676590327774 110.42789841667187 138.26473172733554 H 0.0 **** 0.06
3781 C 26.074689962932894 123.46494713422408 71.40714601679603 C 0.0 **** -0.24
3782 H 26.495741538217374 123.33032284615751 72.40381283552631 H 0.0 **** 0.06
3783 H 25.485944314008123 122.58670786957856 71.14066480538474 H 0.0 **** 0.06
3784 H 26.88264275947438 123.59364529061332 70.68672188696186 H 0.0 **** 0.06
3785 H 25.435052932887118 124.34768571348201 71.39927606571503 H 0.0 **** 0.06
3786 C 80.10507577056428 109.50012624655793 64.95259651359038 C 0.0 **** -0.24
3787 H 80.52667194556572 110.46658518411897 64.67735366387257 H 0.0 **** 0.06
3788 H 79.29720779306105 109.64728773490765 65.66970298871149 H 0.0 **** 0.06
3789 H 80.88139748725469 108.87920302403839 65.40013736341712 H 0.0 **** 0.06
3790 H 79.71445642890689 109.00788051932602 64.06161977496771 H 0.0 **** 0.06
3791 C 69.9841234347756 111.57914862847286 47.20277130548368 C 0.0 **** -0.24
3792 H 69.43310426986602 110.72276370377597 46.813486563457104 H 0.0 **** 0.06
3793 H 69.29125693484127 112.39891570935004 47.397509231193425 H 0.0 **** 0.06
3794 H 70.72569897027574 111.89737703092726 46.46950239941414 H 0.0 **** 0.06
3795 H 70.48500580007499 111.29838741556318 48.12909028053876 H 0.0 **** 0.06
3796 C 27.12968181646059 161.23913530456943 20.886069608551054 C 0.0 **** -0.24
3797 H 27.178519275837033 162.32162252124317 21.006644076436032 H 0.0 **** 0.06
3798 H 26.106823847692255 160.90063512963096 21.052994983455505 H 0.0 **** 0.06
3799 H 27.79231030017553 160.76324884724724 21.60944810553906 H 0.0 **** 0.06
3800 H 27.440935332249552 160.97140236644202 19.876549838454935 H 0.0 **** 0.06
3801 C 67.11195306756247 17.058848831175048 63.08910225986273 C 0.0 **** -0.24
3802 H 67.98925826599763 17.665588298625096 62.86620846333011 H 0.0 **** 0.06
3803 H 67.34721414848445 16.00629786348876 62.92505775039194 H 0.0 **** 0.06
3804 H 66.29125871368892 17.35440837936318 62.43497520243102 H 0.0 **** 0.06
3805 H 66.82036015466362 17.20879495216925 64.1279701769974 H 0.0 **** 0.06
3806 C 109.58835221038669 31.17399177582513 127.46119863610843 C 0.0 **** -0.24
3807 H 109.5690616706695 30.112743861592946 127.21504102667296 H 0.0 **** 0.06
3808 H 108.62557637842684 31.621047292569045 127.21337224199175 H 0.0 **** 0.06
3809 H 110.3756963884158 31.665965908923 126.89109301482392 H 0.0 **** 0.06
3810 H 109.78125087312844 31.295776565925706 128.52686528857808 H 0.0 **** 0.06
3811 C 124.1702075745861 73.73602491008016 74.69776485057382 C 0.0 **** -0.24
3812 H 125.18177278597034 74.09183726265078 74.89633797279434 H 0.0 **** 0.06
3813 H 123.49472868543654 74.12146853296862 75.46157133386677 H 0.0 **** 0.06
3814 H 124.15850965271008 72.6458366834067 74.71854162679166 H 0.0 **** 0.06
3815 H 123.84868270652106 74.08456482166362 73.71676407658931 H 0.0 **** 0.06
3816 C 105.88236259500556 143.1179070342378 90.5142163719674 C 0.0 **** -0.24
3817 H 106.44083129314225 142.6352643877011 91.31665369912011 H 0.0 **** 0.06
3818 H 105.04863783747513 143.67683130854616 90.93792913752208 H 0.0 **** 0.06
3819 H 105.50146197874756 142.35923964933966 89.8302562953408 H 0.0 **** 0.06
3820 H 106.53940927329236 143.7975749433677 89.97293270526646 H 0.0 **** 0.06
3821 C 140.90713872788373 8.765598732421509 29.124882760097577 C 0.0 **** -0.24
3822 H 141.56290271353572 8.538043919844931 28.28482726183926 H 0.0 **** 0.06
3823 H 141.3058310420635 8.309124485241455 30.031601347779386 H 0.0 **** 0.06
3824 H 139.91194813803497 8.36818485694991 28.92548427124617 H 0.0 **** 0.06
3825 H 140.84720640800165 9.845819980362045 29.25736681956947 H 0.0 **** 0.06
3826 C 14.911102217034625 56.97813272477745 89.042015723765 C 0.0 **** -0.24
3827 H 14.314885905561255 57.57516852353717 89.73254612905403 H 0.0 **** 0.06
3828 H 14.298572567444012 56.69385088998635 88.18635800925601 H 0.0 **** 0.06
3829 H 15.264762207398746 56.08046443222213 89.55025694265707 H 0.0 **** 0.06
3830 H 15.765307323265404 57.56259402757985 88.7009065575491 H 0.0 **** 0.06
3831 C 57.91117659270746 29.947617073694566 0.7503499276828904 C 0.0 **** -0.24
3832 H 57.36376266787623 29.38806390630468 1.5093256354032007 H 0.0 **** 0.06
3833 H 58.717470411759436 30.508910567789442 1.2242716478459101 H 0.0 **** 0.06
3834 H 57.233014989072444 30.63768845776221 0.249710197838084 H 0.0 **** 0.06
3835 H 58.32999840594353 29.25507266338014 0.020383916352301412 H 0.0 **** 0.06
3836 C 80.48411032486393 127.74034231135116 37.97547630070562 C 0.0 **** -0.24
3837 H 79.8451596781155 127.37697340347631 38.779622387445556 H 0.0 **** 0.06
3838 H 80.46569999346906 128.83036621347648 37.96155416055535 H 0.0 **** 0.06
3839 H 80.11987774383016 127.35906243987222 37.02148565950267 H 0.0 **** 0.06
3840 H 81.50485707628849 127.3960678270085 38.1389754658062 H 0.0 **** 0.06
3841 C 150.13308881939287 51.498760197065536 85.83122392865205 C 0.0 **** -0.24
3842 H 150.89757991618126 51.90692401843438 85.17048759764147 H 0.0 **** 0.06
3843 H 150.60561426306344 50.881494119124 86.59531957132451 H 0.0 **** 0.06
3844 H 149.4384358276855 50.890730887414065 85.25117009165655 H 0.0 **** 0.06
3845 H 149.59068998083342 52.31510254374592 86.30730533301777 H 0.0 **** 0.06
3846 C 110.87853683423273 35.50537181662338 158.8137605328679 C 0.0 **** -0.24
3847 H 110.90881719151639 35.04177152983709 157.8266745220779 H 0.0 **** 0.06
3848 H 111.89499774752176 35.641245516598985 159.1816197060529 H 0.0 **** 0.06
3849 H 110.32551668427223 34.863173527395986 159.49872980718555 H 0.0 **** 0.06
3850 H 110.38450130164196 36.474369136044714 158.74440683510812 H 0.0 **** 0.06
3851 C 21.52213380597388 24.328631145096978 68.21330730761429 C 0.0 **** -0.24
3852 H 20.518807507374788 24.584956244727323 68.55445926396732 H 0.0 **** 0.06
3853 H 22.00563956114445 25.2175735204751 67.80788345310074 H 0.0 **** 0.06
3854 H 21.457730947016273 23.563817626344218 67.43921789725871 H 0.0 **** 0.06
3855 H 22.10411444892219 23.947196984003256 69.05176561954187 H 0.0 **** 0.06
3856 C 75.84791836397758 111.70309237800515 113.4480848671351 C 0.0 **** -0.24
3857 H 74.94299265031611 112.05374262960979 112.95100566337382 H 0.0 **** 0.06
3858 H 76.69007581957871 112.3293749052726 113.15437946976462 H 0.0 **** 0.06
3859 H 76.04285013060121 110.67066274643813 113.15933498662474 H 0.0 **** 0.06
3860 H 75.71208493356258 111.75877413433213 114.52832497387007 H 0.0 **** 0.06
3861 C 158.64615763131928 10.432738950778258 88.96746466434513 C 0.0 **** -0.24
3862 H 157.63156949046254 10.261173386324728 88.60863601201902 H 0.0 **** 0.06
3863 H 158.61290784108496 11.038999134344742 89.87322121322552 H 0.0 **** 0.06
3864 H 159.2187128846066 10.954687847136611 88.20110921757686 H 0.0 **** 0.06
3865 H 159.12012076682242 9.475960038241396 89.18738265936895 H 0.0 **** 0.06
3866 C 14.04748198927448 38.27954636279938 125.14145177602734 C 0.0 **** -0.24
3867 H 14.483108259189592 37.7791572393988 124.27652557182364 H 0.0 **** 0.06
3868 H 14.301901758028052 39.339165285344336 125.11439293759105 H 0.0 **** 0.06
3869 H 14.441212867877354 37.833235872249475 126.05464222611062 H 0.0 **** 0.06
3870 H 12.963245257211021 38.16603722056409 125.11958251859073 H 0.0 **** 0.06
3871 C 24.92453887346028 1.5892432158722158 10.802463886056302 C 0.0 **** -0.24
3872 H 24.36323774146524 0.6780824713283664 10.597134948663047 H 0.0 **** 0.06
3873 H 25.389423693201877 1.944036295420517 9.881405311007697 H 0.0 **** 0.06
3874 H 25.69676066185889 1.3809857973457156 11.54295845786391 H 0.0 **** 0.06
3875 H 24.248736987600864 2.3534834293511153 11.185554666166972 H 0.0 **** 0.06
3876 C 57.91349725763234 64.78855711414596 160.85663420464957 C 0.0 **** -0.24
3877 H 58.938424575353324 65.13110853672873 160.71473153481014 H 0.0 **** 0.06
3878 H 57.28643200467398 65.17842544192831 160.0549056298498 H 0.0 **** 0.06
3879 H 57.540472633942045 65.14601537181215 161.81632481878233 H 0.0 **** 0.06
3880 H 57.889644499212935 63.699479738607124 160.8399507774303 H 0.0 **** 0.06
3881 C 118.52278031033399 148.46037710855572 135.78774294808525 C 0.0 **** -0.24
3882 H 119.36656200562541 148.31681087563535 136.46314065509884 H 0.0 **** 0.06
3883 H 117.66348109987524 147.89696549798242 136.15477721557735 H 0.0 **** 0.06
3884 H 118.7905048652132 148.1070612937473 134.79237350487392 H 0.0 **** 0.06
3885 H 118.27093545763398 149.51922959331074 135.74235134176712 H 0.0 **** 0.06
3886 C 5.618036439963305 82.41771198489803 147.09845553884102 C 0.0 **** -0.24
3887 H 5.40716681889009 81.74473380503481 147.9292625039449 H 0.0 **** 0.06
3888 H 6.5870530060823285 82.8939708019252 147.2526188754519 H 0.0 **** 0.06
3889 H 4.841844706262094 83.1813672732785 147.04462374331973 H 0.0 **** 0.06
3890 H 5.635194495061455 81.85067659943003 146.16776852074523 H 0.0 **** 0.06
3891 C 117.06029620479569 118.32451477404828 81.23093477884532 C 0.0 **** -0.24
3892 H 116.85625665920534 117.26936328753752 81.41249208483586 H 0.0 **** 0.06
3893 H 118.06091542687096 118.43399010679283 80.81336422869833 H 0.0 **** 0.06
3894 H 116.99499065124775 118.87335273271071 82.17019934421235 H 0.0 **** 0.06
3895 H 116.32716709634332 118.72011050111507 80.5278077669822 H 0.0 **** 0.06
3896 C 74.06315655264035 1.2362316886553657 105.04143230285155 C 0.0 **** -0.24
3897 H 73.70982758884793 1.9186369065295281 105.81356155084688 H 0.0 **** 0.06
3898 H 74.0212243918159 0.2124126037029228 105.4143720561961 H 0.0 **** 0.06
3899 H 75.0924373113414 1.4861741720330954 104.77990449053956 H 0.0 **** 0.06
3900 H 73.43120872786108 1.3285222158342265 104.15808284557963 H 0.0 **** 0.06
3901 C 99.79554782477942 96.88042432843758 52.91119841962822 C 0.0 **** -0.24
3902 H 99.46630178547701 97.9197224731148 52.87414005013932 H 0.0 **** 0.06
3903 H 98.92550211357428 96.22566095087114 52.96785757549847 H 0.0 **** 0.06
3904 H 100.4229231800764 96.72925568951712 53.788701133359524 H 0.0 **** 0.06
3905 H 100.36659715167411 96.64955342911264 52.01208933794749 H 0.0 **** 0.06
3906 C 61.57495247919269 13.787960822156094 144.67012440810208 C 0.0 **** -0.24
3907 H 62.387576256806454 14.510832174033254 144.59495477234017 H 0.0 **** 0.06
3908 H 61.97345159395826 12.780769925787922 144.54626229106336 H 0.0 **** 0.06
3909 H 60.838794869854894 13.987306323147692 143.89133804230633 H 0.0 **** 0.06
3910 H 61.1020750291749 13.873567525170102 145.64843328743854 H 0.0 **** 0.06
3911 C 15.413963139650129 102.1843653603517 98.33571171707678 C 0.0 **** -0.24
3912 H 16.41167435785411 101.75060491076763 98.27176611398144 H 0.0 **** 0.06
3913 H 14.722497374091539 101.4442968969216 98.73977687316273 H 0.0 **** 0.06
3914 H 15.084546021261865 102.48454395443588 97.3403996731007 H 0.0 **** 0.06
3915 H 15.437627938081462 103.05639302934452 98.98944682059371 H 0.0 **** 0.06
3916 C 97.1616899352143 114.01975374172343 93.57517183216265 C 0.0 **** -0.24
3917 H 97.25205881076931 115.06658819272889 93.28427843090446 H 0.0 **** 0.06
3918 H 96.22613386810052 113.87161897882302 94.11503367564274 H 0.0 **** 0.06
3919 H 97.99974532995489 113.74956630292507 94.21854326007923 H 0.0 **** 0.06
3920 H 97.17174844342784 113.39349972684835 92.68341089222912 H 0.0 **** 0.06
3921 C 126.27784797396941 98.16030641780247 91.56177250606811 C 0.0 **** -0.24
3922 H 127.07337461920119 98.53155103188294 90.91546324714965 H 0.0 **** 0.06
3923 H 126.71701596733206 97.68094449822871 92.43731034842422 H 0.0 **** 0.06
3924 H 125.67328308445218 97.43627396179846 91.01522043796828 H 0.0 **** 0.06
3925 H 125.65015152888998 98.99263761604328 91.87931114983955 H 0.0 **** 0.06
3926 C 32.443992013941795 26.204864088519102 41.129960448397696 C 0.0 **** -0.24
3927 H 32.14484656179661 26.211920770203236 40.081569264486404 H 0.0 **** 0.06
3928 H 33.40790273937165 25.704703272325446 41.229545389234545 H 0.0 **** 0.06
3929 H 31.695746517119915 25.673495852119324 41.71765281244507 H 0.0 **** 0.06
3930 H 32.527771877273494 27.230290504942005 41.49106774477451 H 0.0 **** 0.06
3931 C 125.31170661453629 128.99089769414928 25.014177439302493 C 0.0 **** -0.24
3932 H 124.95976079269656 129.4382645037817 24.083992529414672 H 0.0 **** 0.06
3933 H 124.9463340136445 127.96590276619318 25.083870640161336 H 0.0 **** 0.06
3934 H 124.9378862432512 129.5688149159181 25.85914540235857 H 0.0 **** 0.06
3935 H 126.40147286839971 128.99069802393808 25.027035025707136 H 0.0 **** 0.06
3936 C 82.60452402535401 99.81859155733548 93.84292965804872 C 0.0 **** -0.24
3937 H 81.95450206313058 99.62810092812884 94.69737254580164 H 0.0 **** 0.06
3938 H 82.54000441975167 98.98343013860284 93.14594510927921 H 0.0 **** 0.06
3939 H 83.63320044069258 99.92655093407609 94.18655657143593 H 0.0 **** 0.06
3940 H 82.28971561220365 100.73477327925548 93.34434712684296 H 0.0 **** 0.06
3941 C 4.420046365196356 98.80091979500571 26.12723583145521 C 0.0 **** -0.24
3942 H 4.6939259382378395 98.88478516574912 27.178929434644033 H 0.0 **** 0.06
3943 H 5.026667760139844 99.48891403060804 25.538674653967632 H 0.0 **** 0.06
3944 H 3.3655676383086757 99.04920156653128 26.006833874325253 H 0.0 **** 0.06
3945 H 4.59428721851242 97.78007003881532 25.78757607669104 H 0.0 **** 0.06
3946 C 70.27728861305104 100.1375409803496 72.27008061757432 C 0.0 **** -0.24
3947 H 69.27629282469638 99.77302831156712 72.03910052044084 H 0.0 **** 0.06
3948 H 70.95810767876993 99.29160998240724 72.3679786275609 H 0.0 **** 0.06
3949 H 70.25439517325692 100.69711948790768 73.20506491291093 H 0.0 **** 0.06
3950 H 70.61984226907474 100.78887122986362 71.46582956005334 H 0.0 **** 0.06
3951 C 23.667084719418312 132.44897724028485 150.61422133969592 C 0.0 **** -0.24
3952 H 22.91176610109389 132.25677081467992 149.85243966468948 H 0.0 **** 0.06
3953 H 24.564578101786935 132.84893189535595 150.14309636931495 H 0.0 **** 0.06
3954 H 23.909720871376464 131.51787058745606 151.12777269928222 H 0.0 **** 0.06
3955 H 23.281977423744934 133.17080747089994 151.33433614939872 H 0.0 **** 0.06
3956 C 2.495386844205285 139.12763838386624 59.14873576800261 C 0.0 **** -0.24
3957 H 2.1167493593208917 139.46958924007032 60.11149695118229 H 0.0 **** 0.06
3958 H 3.5585526511412695 139.35982347661476 59.07338020994263 H 0.0 **** 0.06
3959 H 1.95574974828952 139.62945505987 58.345551676259504 H 0.0 **** 0.06
3960 H 2.3520440487690166 138.05025683359173 59.06526302411828 H 0.0 **** 0.06
3961 C 47.50424854495259 93.69600413367928 19.77155227360707 C 0.0 **** -0.24
3962 H 47.44775045672573 93.83268146928717 20.851174479931707 H 0.0 **** 0.06
3963 H 48.31720927991921 93.00853357470885 19.53503383691738 H 0.0 **** 0.06
3964 H 47.69024715908246 94.65695049433216 19.29312105868412 H 0.0 **** 0.06
3965 H 46.56281511997388 93.28519191414188 19.408463791082077 H 0.0 **** 0.06
3966 C 14.515238179222933 15.697307543404719 133.21985053269037 C 0.0 **** -0.24
3967 H 14.924517781515078 14.833665714488674 133.74534163387904 H 0.0 **** 0.06
3968 H 13.500925902796894 15.473338353953132 132.89064658103862 H 0.0 **** 0.06
3969 H 15.137707962817785 15.92332648656356 132.3547727177753 H 0.0 **** 0.06
3970 H 14.500076198658348 16.556261511450387 133.89106291695023 H 0.0 **** 0.06
3971 C 92.83748398460864 22.79297166694832 59.45712167789358 C 0.0 **** -0.24
3972 H 92.43707306862157 21.935773729638584 59.99838653913581 H 0.0 **** 0.06
3973 H 93.1665768613589 23.550513203818866 60.16995659621139 H 0.0 **** 0.06
3974 H 92.06284521379501 23.21036330232775 58.81396240654179 H 0.0 **** 0.06
3975 H 93.68375173540643 22.47449702869659 58.84849564147737 H 0.0 **** 0.06
3976 C 92.64216099819211 127.05580203023248 128.29446739515274 C 0.0 **** -0.24
3977 H 91.64997914576784 126.81914662224483 127.9103967758268 H 0.0 **** 0.06
3978 H 92.70308712998002 128.12319292881415 128.5086345171921 H 0.0 **** 0.06
3979 H 93.39233854809714 126.7898076342442 127.54999075304184 H 0.0 **** 0.06
3980 H 92.82145001097345 126.49020438369126 129.20859189157161 H 0.0 **** 0.06
3981 C 39.74691507012838 44.427468105224534 117.7958155526135 C 0.0 **** -0.24
3982 H 39.7109757093276 44.64240194312063 118.86426007271905 H 0.0 **** 0.06
3983 H 39.17942523575958 43.520475815759156 117.58823636149228 H 0.0 **** 0.06
3984 H 40.783432852732815 44.2867857175861 117.48966983317214 H 0.0 **** 0.06
3985 H 39.3144861234839 45.26171353285132 117.2439771615106 H 0.0 **** 0.06
3986 C 151.025446002358 149.38200915798066 27.808944136524758 C 0.0 **** -0.24
3987 H 151.65927935715183 148.6416799385805 28.295665555556354 H 0.0 **** 0.06
3988 H 151.52147285660322 150.35363324163498 27.828716030914507 H 0.0 **** 0.06
3989 H 150.07484911477832 149.4497771640389 28.337858030087943 H 0.0 **** 0.06
3990 H 150.8466463961803 149.08581516855367 26.77513531077861 H 0.0 **** 0.06
3991 C 91.08784267408477 34.188961553377396 92.7361645086727 C 0.0 **** -0.24
3992 H 91.44711666408254 33.88051493915333 93.71796731155746 H 0.0 **** 0.06
3993 H 91.35367027060613 33.43285416645108 91.9980594105383 H 0.0 **** 0.06
3994 H 91.54729844565048 35.140065702682364 92.46451364998 H 0.0 **** 0.06
3995 H 90.0045120665085 34.303924591887494 92.76639924560266 H 0.0 **** 0.06
3996 C 2.511564810751281 123.45811097368906 15.261740490241607 C 0.0 **** -0.24
3997 H 2.7117128931437833 123.5542614121897 14.194295543870112 H 0.0 **** 0.06
3998 H 2.7173772318443525 124.40710807229709 15.75670877751611 H 0.0 **** 0.06
3999 H 3.149740603574628 122.68182888548952 15.68295730955117 H 0.0 **** 0.06
4000 H 1.4651526530478804 123.18923151576865 15.412094548741038 H 0.0 **** 0.06
4001 C 151.43453327761785 30.411366088639795 126.67708957280459 C 0.0 **** -0.24
4002 H 150.86798808558814 31.042678402606413 125.9927613215743 H 0.0 **** 0.06
4003 H 152.31657850309387 30.950152062571625 127.02262066815283 H 0.0 **** 0.06
4004 H 151.74300248937743 29.501514791930596 126.16072607215483 H 0.0 **** 0.06
4005 H 150.80990209519297 30.15044070667461 127.53120061729692 H 0.0 **** 0.06
4006 C 120.32604226102788 57.32645278679391 17.91273472518907 C 0.0 **** -0.24
4007 H 119.66472311945856 56.469167293153845 17.786384277497632 H 0.0 **** 0.06
4008 H 119.85993522585886 58.21197714377874 17.47844477752153 H 0.0 **** 0.06
4009 H 121.2728270269134 57.131228256783615 17.410047129443626 H 0.0 **** 0.06
4010 H 120.5052337748188 57.494070844354994 18.974192405798846 H 0.0 **** 0.06
4011 C 75.17781099422302 117.43723695101843 115.53778957656752 C 0.0 **** -0.24
4012 H 75.57030820464257 118.42863681933162 115.31309628319744 H 0.0 **** 0.06
4013 H 74.10184372856202 117.42419855250375 115.36601566248851 H 0.0 **** 0.06
4014 H 75.38281517997723 117.19372382992265 116.58044028987322 H 0.0 **** 0.06
4015 H 75.65848812382643 116.70227050535382 114.8919167678423 H 0.0 **** 0.06
4016 C 136.69819572829948 128.53183625058375 92.17275585761314 C 0.0 **** -0.24
4017 H 136.57972946095921 129.5542395746864 92.5310086032681 H 0.0 **** 0.06
4018 H 137.07459616208507 128.5479563050618 91.14949404343784 H 0.0 **** 0.06
4019 H 135.73307805021165 128.0254209099904 92.19700947739659 H 0.0 **** 0.06
4020 H 137.40277211009703 128.00185584586885 92.81187531333424 H 0.0 **** 0.06
4021 C 84.41512201020251 11.581371953301762 142.1650815399934 C 0.0 **** -0.24
4022 H 85.13915973195564 10.908006432513169 141.7076779199731 H 0.0 **** 0.06
4023 H 84.9407534000808 12.375094708506303 142.69598330766812 H 0.0 **** 0.06
4024 H 83.79372606864736 11.024083279311078 142.86695140718288 H 0.0 **** 0.06
4025 H 83.78483054041303 12.017386264768447 141.38942113294607 H 0.0 **** 0.06
4026 C 33.209020921466674 153.54039689069504 28.58103447833517 C 0.0 **** -0.24
4027 H 32.81191635597776 154.194104808366 27.804453652921524 H 0.0 **** 0.06
4028 H 33.53464205270137 152.60119177574518 28.133833754378458 H 0.0 **** 0.06
4029 H 32.43242046537438 153.34195495079933 29.31990212099609 H 0.0 **** 0.06
4030 H 34.05565034282063 154.02674630520227 29.066222838259762 H 0.0 **** 0.06
4031 C 95.13628395930476 161.9993237569419 15.705051862639834 C 0.0 **** -0.24
4032 H 94.15195579518809 161.97915579470936 15.236093219903722 H 0.0 **** 0.06
4033 H 95.83661445243462 162.52450469820923 15.054303766225757 H 0.0 **** 0.06
4034 H 95.48340165918626 160.97890239908736 15.865221740348261 H 0.0 **** 0.06
4035 H 95.07205638933118 162.51709958628305 16.661911233967714 H 0.0 **** 0.06
4036 C 128.25133856169938 6.500931798744546 111.92686110736395 C 0.0 **** -0.24
4037 H 128.82838311667706 5.5780295599439 111.86934682110336 H 0.0 **** 0.06
4038 H 127.53012059519381 6.428131236051456 112.74149084422913 H 0.0 **** 0.06
4039 H 127.72286302441674 6.657134857749213 110.9857877292173 H 0.0 **** 0.06
4040 H 128.92353842770385 7.339309396223257 112.10868847247076 H 0.0 **** 0.06
4041 C 31.492900105833456 2.9202861845194548 129.23613973445387 C 0.0 **** -0.24
4042 H 31.94990410554368 3.558762642040932 128.47966036700385 H 0.0 **** 0.06
4043 H 31.209936771064633 3.524744633926616 130.09874893519466 H 0.0 **** 0.06
4044 H 32.20567500674184 2.156730624906743 129.544951414053 H 0.0 **** 0.06
4045 H 30.606294665404533 2.4427991779857905 128.81965709381063 H 0.0 **** 0.06
4046 C 65.95268879007114 27.4846507755405 54.15734319741729 C 0.0 **** -0.24
4047 H 64.91536023894565 27.292700945945228 53.885691668392354 H 0.0 **** 0.06
4048 H 66.12202807110846 27.17127952171083 55.18779578701957 H 0.0 **** 0.06
4049 H 66.16175096524529 28.551396309621566 54.06313119407331 H 0.0 **** 0.06
4050 H 66.61192704609897 26.926472624105855 53.49335833560528 H 0.0 **** 0.06
4051 C 35.36991007893752 78.33539255822069 49.560201168352165 C 0.0 **** -0.24
4052 H 35.972494440135904 77.43722757326817 49.696570565531275 H 0.0 **** 0.06
4053 H 35.80899797112093 79.1571784690949 50.12482100508528 H 0.0 **** 0.06
4054 H 34.356623611049116 78.14942036113949 49.91791301851859 H 0.0 **** 0.06
4055 H 35.33998426806738 78.59504134774912 48.502070361990576 H 0.0 **** 0.06
4056 C 94.09438749105443 70.86264481249967 16.421659098781674 C 0.0 **** -0.24
4057 H 94.44421066884536 71.28441262197282 15.479495360310011 H 0.0 **** 0.06
4058 H 93.2891684415248 70.15393460704956 16.225682029651125 H 0.0 **** 0.06
4059 H 93.72656878829696 71.66252369903839 17.0639090571122 H 0.0 **** 0.06
4060 H 94.91786391713666 70.34779579651604 16.918073208006376 H 0.0 **** 0.06
4061 C 108.71479215405455 135.86932822313054 139.44737275726237 C 0.0 **** -0.24
4062 H 108.04086888523926 136.720588996158 139.3487908468997 H 0.0 **** 0.06
4063 H 108.15959596030044 135.00719428117048 139.81811813438287 H 0.0 **** 0.06
4064 H 109.51228470464025 136.11738776904969 140.14902794468105 H 0.0 **** 0.06
4065 H 109.14739233978275 135.6337837683014 138.47564146297015 H 0.0 **** 0.06
4066 C 56.61312730011389 82.89264785923456 89.00444205042697 C 0.0 **** -0.24
4067 H 57.626968562565196 83.06610141371057 88.64461904574443 H 0.0 **** 0.06
4068 H 55.92652042404086 83.57066533161026 88.49608960895216 H 0.0 **** 0.06
4069 H 56.573412692474676 83.07298772468491 90.0785096122076 H 0.0 **** 0.06
4070 H 56.325702696081976 81.86163336592634 88.79701475372065 H 0.0 **** 0.06
4071 C 136.97611557079153 142.4335447385788 39.24205947307266 C 0.0 **** -0.24
4072 H 137.5467941473321 141.58239975427833 39.61448672189505 H 0.0 **** 0.06
4073 H 136.05724295968065 142.07838509556422 38.77546799161968 H 0.0 **** 0.06
4074 H 137.57138560648787 142.97591419140636 38.50710584581361 H 0.0 **** 0.06
4075 H 136.73050499669847 143.0967334643208 40.07172086623768 H 0.0 **** 0.06
4076 C 31.23767207235693 138.12920688456182 43.45038975678679 C 0.0 **** -0.24
4077 H 31.372843306461363 137.05132318325218 43.54280369625198 H 0.0 **** 0.06
4078 H 30.20055775405922 138.3449624217025 43.19351761734771 H 0.0 **** 0.06
4079 H 31.893016384711963 138.51012139374222 42.66689257424008 H 0.0 **** 0.06
4080 H 31.48525318567112 138.6094579607061 44.39729226812216 H 0.0 **** 0.06
4081 C 91.19946003403922 106.4304305757289 128.66894271450712 C 0.0 **** -0.24
4082 H 90.50686737093591 106.47817537342394 129.5088698978318 H 0.0 **** 0.06
4083 H 92.12450172772772 105.95006823982374 128.98638203217348 H 0.0 **** 0.06
4084 H 91.41572951915337 107.43990003360796 128.318743072093 H 0.0 **** 0.06
4085 H 90.74932564729548 105.85397503262402 127.85981667858107 H 0.0 **** 0.06
4086 C 49.91482801132389 5.251835258489223 65.70643160221361 C 0.0 **** -0.24
4087 H 50.46668522296244 4.422931442014885 66.14976662120887 H 0.0 **** 0.06
4088 H 50.11241377518405 6.163575269607975 66.27058662381576 H 0.0 **** 0.06
4089 H 48.8474972785786 5.032038158922319 65.73171399044662 H 0.0 **** 0.06
4090 H 50.23446150831228 5.3884577995119685 64.67274373723292 H 0.0 **** 0.06
4091 C 123.42952390583312 123.38060911651547 57.123685890004296 C 0.0 **** -0.24
4092 H 123.84415368051728 122.97500194844852 58.04722899632566 H 0.0 **** 0.06
4093 H 124.23535034530298 123.55268507355862 56.409264089892915 H 0.0 **** 0.06
4094 H 122.92455000253321 124.32295156001726 57.3363615496216 H 0.0 **** 0.06
4095 H 122.71653168204023 122.67210787688799 56.703813417009215 H 0.0 **** 0.06
4096 C 94.41575285523642 93.26855176390471 101.77503303898743 C 0.0 **** -0.24
4097 H 94.53243317151663 92.432001946497 102.46289052182189 H 0.0 **** 0.06
4098 H 93.78661478142445 92.96482468478553 100.93741077991643 H 0.0 **** 0.06
4099 H 95.39395198456947 93.57265191903456 101.40339558703275 H 0.0 **** 0.06
4100 H 93.94926387624444 94.1050110104337 102.29583418106239 H 0.0 **** 0.06
4101 C 85.5265273316669 120.20325013660869 129.47176308078795 C 0.0 **** -0.24
4102 H 85.24698564604043 120.64965621779493 128.51709720525227 H 0.0 **** 0.06
4103 H 86.191219389814 119.3572439264525 129.29530392530015 H 0.0 **** 0.06
4104 H 84.63066833907658 119.85950192084778 129.98806789498136 H 0.0 **** 0.06
4105 H 86.03775458330739 120.94558195294104 130.0846603201847 H 0.0 **** 0.06
4106 C 55.53635919531692 132.77496100647352 93.99316812351799 C 0.0 **** -0.24
4107 H 55.014335262724515 133.68626290693857 93.702292376119 H 0.0 **** 0.06
4108 H 54.86698462364055 132.14496895171487 94.57994967122639 H 0.0 **** 0.06
4109 H 56.410134930879735 133.033026213931 94.59207812414448 H 0.0 **** 0.06
4110 H 55.85350949621187 132.23647667977508 93.10058471179809 H 0.0 **** 0.06
4111 C 117.7401952711993 104.64840198928013 78.91516661681192 C 0.0 **** -0.24
4112 H 116.65267788933454 104.65848689176872 78.98869278765955 H 0.0 **** 0.06
4113 H 118.1404810654443 105.57414998522447 79.32775087193255 H 0.0 **** 0.06
4114 H 118.03211654730234 104.55945870631771 77.86878431805513 H 0.0 **** 0.06
4115 H 118.13371824533726 103.79983756074415 79.47541384472294 H 0.0 **** 0.06
4116 C 60.88342329077902 137.4408282767164 106.94778836235491 C 0.0 **** -0.24
4117 H 60.67150220129035 138.31403270033414 107.56595450933995 H 0.0 **** 0.06
4118 H 61.64307139501463 137.69512330789908 106.20845308105896 H 0.0 **** 0.06
4119 H 59.972364044011925 137.12638350036434 106.44008338487822 H 0.0 **** 0.06
4120 H 61.2474275046289 136.62926031949013 107.57819160831858 H 0.0 **** 0.06
4121 C 139.66267006429632 2.701471362088796 120.64640242808392 C 0.0 **** -0.24
4122 H 138.5769008539416 2.772592150581744 120.69988020184249 H 0.0 **** 0.06
4123 H 139.98893373577204 2.890154534949886 119.6224221510328 H 0.0 **** 0.06
4124 H 139.9764038757373 1.7020113171214746 120.94925651702047 H 0.0 **** 0.06
4125 H 140.1089218474027 3.43981635263043 121.31159100038116 H 0.0 **** 0.06
4126 C 136.5249151009765 93.4186868873388 68.64359707264883 C 0.0 **** -0.24
4127 H 136.65716004304687 93.55253280881303 67.57038396567742 H 0.0 **** 0.06
4128 H 137.2932525788105 93.97853845260025 69.17693899373796 H 0.0 **** 0.06
4129 H 136.607546641503 92.3609449947985 68.89124791399783 H 0.0 **** 0.06
4130 H 135.5407014893235 93.7840583527036 68.93630700976603 H 0.0 **** 0.06
4131 C 152.99006379735653 132.78202174434261 36.14196715373632 C 0.0 **** -0.24
4132 H 154.07568813104695 132.83209924302852 36.22709595705439 H 0.0 **** 0.06
4133 H 152.62231950954055 133.68223832670097 35.64900354886214 H 0.0 **** 0.06
4134 H 152.55144487249834 132.70672618744223 37.13690728738271 H 0.0 **** 0.06
4135 H 152.71196160797967 131.9067743172957 35.55409046883466 H 0.0 **** 0.06
4136 C 100.81832130038265 161.62369340957875 153.52109286677012 C 0.0 **** -0.24
4137 H 99.98873901614536 161.7293364932533 154.2203000128706 H 0.0 **** 0.06
4138 H 100.68129418807547 162.3145214867982 152.68905560782486 H 0.0 **** 0.06
4139 H 100.84777476047464 160.60142002566965 153.14455672547183 H 0.0 **** 0.06
4140 H 101.75437094540746 161.85055254249212 154.0317472130933 H 0.0 **** 0.06
4141 C 133.5093395533141 151.49634508291314 21.386820517941572 C 0.0 **** -0.24
4142 H 133.09312927924543 152.45246622210078 21.069128469494302 H 0.0 **** 0.06
4143 H 133.03198521698724 151.18290369463915 22.315288175701376 H 0.0 **** 0.06
4144 H 134.58268960972205 151.6027164736014 21.547137920550377 H 0.0 **** 0.06
4145 H 133.33023797652322 150.74789778252568 20.61464687702008 H 0.0 **** 0.06
4146 C 28.302091890204537 25.024978234719136 94.21307068348614 C 0.0 **** -0.24
4147 H 28.49222804154448 24.793617986888734 93.16548369145207 H 0.0 **** 0.06
4148 H 27.767539139313527 24.194112278974714 94.6767624629336 H 0.0 **** 0.06
4149 H 27.69770532101495 25.929548104895623 94.28118883747402 H 0.0 **** 0.06
4150 H 29.249954008094818 25.179967431215175 94.72881540818082 H 0.0 **** 0.06
4151 C 114.46113963648497 98.4980932454043 60.759244235458226 C 0.0 **** -0.24
4152 H 114.03204459271117 99.36313987406814 61.265143076523756 H 0.0 **** 0.06
4153 H 114.07560340023346 98.44496039324153 59.74043335666528 H 0.0 **** 0.06
4154 H 114.18976884168686 97.59101243783908 61.29926011925889 H 0.0 **** 0.06
4155 H 115.5467406758749 98.59405662948072 60.73259318364465 H 0.0 **** 0.06
4156 C 71.78223618670407 57.89554500251069 13.968838908080222 C 0.0 **** -0.24
4157 H 71.53882144434614 58.941907831441824 13.782597208237299 H 0.0 **** 0.06
4158 H 71.21154011072369 57.53656066891631 14.825327725315482 H 0.0 **** 0.06
4159 H 72.84836110408718 57.80313915822802 14.17675880883013 H 0.0 **** 0.06
4160 H 71.53153841635726 57.302982787735345 13.088812479363277 H 0.0 **** 0.06
4161 C 94.15644939896625 93.28617794067812 88.5662148598947 C 0.0 **** -0.24
4162 H 93.60590171391482 94.20004557081076 88.34743415411506 H 0.0 **** 0.06
4163 H 93.45971063626563 92.50879923218736 88.8812820337487 H 0.0 **** 0.06
4164 H 94.87393092552726 93.47617714295507 89.36466863270208 H 0.0 **** 0.06
4165 H 94.68600078438614 92.95843849285487 87.67208286933877 H 0.0 **** 0.06
4166 C 63.42666594989072 74.27847331249644 38.90457554867601 C 0.0 **** -0.24
4167 H 63.745963521978354 74.14931802801075 39.938719556231774 H 0.0 **** 0.06
4168 H 63.85016872062806 73.48327130438983 38.29105372704262 H 0.0 **** 0.06
4169 H 63.772057977168544 75.24512489057997 38.536321605317596 H 0.0 **** 0.06
4170 H 62.33829819835756 74.2380304225396 38.85294330655336 H 0.0 **** 0.06
4171 C 98.6251597188162 43.15227837516106 109.91088025548669 C 0.0 **** -0.24
4172 H 98.59024100471137 42.31330795144474 109.2165401801781 H 0.0 **** 0.06
4173 H 97.77612712227412 43.81045380375396 109.72702269200607 H 0.0 **** 0.06
4174 H 99.55237180570296 43.70607250581986 109.76494310879019 H 0.0 **** 0.06
4175 H 98.58094874859097 42.77911671220889 110.93398025761886 H 0.0 **** 0.06
4176 C 19.097283906850087 121.323893024781 159.99554488808292 C 0.0 **** -0.24
4177 H 18.56978742221149 121.10100230906062 159.06754377055637 H 0.0 **** 0.06
4178 H 19.627937082377954 122.27040917983533 159.8935682982583 H 0.0 **** 0.06
4179 H 19.810817586686895 120.52718791488485 160.20656033871413 H 0.0 **** 0.06
4180 H 18.378910508063505 121.39454691503431 160.81243750744818 H 0.0 **** 0.06
4181 C 7.062411648168677 121.91950867578194 120.46030404364888 C 0.0 **** -0.24
4182 H 6.107348920213013 121.4819578994341 120.75284360006509 H 0.0 **** 0.06
4183 H 7.2205863378732715 122.84750823441865 121.01142517188205 H 0.0 **** 0.06
4184 H 7.054038649250799 122.1282756705836 119.39063489716375 H 0.0 **** 0.06
4185 H 7.866616155120141 121.21955270948351 120.68746834041056 H 0.0 **** 0.06
4186 C 107.68211630493403 55.85911503329052 115.05907641291165 C 0.0 **** -0.24
4187 H 108.60136134251024 56.15646463349218 114.55502322740429 H 0.0 **** 0.06
4188 H 106.92632211576165 56.633116168739306 114.92428675095249 H 0.0 **** 0.06
4189 H 107.87833482163649 55.72354747011025 116.1226127696169 H 0.0 **** 0.06
4190 H 107.32192486167287 54.92203603002521 114.63460271566314 H 0.0 **** 0.06
4191 C 30.526873635075418 18.35965671887601 108.29333859198348 C 0.0 **** -0.24
4192 H 29.543006909247772 18.14378631234922 108.71033151831523 H 0.0 **** 0.06
4193 H 31.275042540190192 18.313128160257918 109.08439372667146 H 0.0 **** 0.06
4194 H 30.52336828819503 19.357982132243592 107.85449468794428 H 0.0 **** 0.06
4195 H 30.763879357440516 17.62598011807526 107.5230809868421 H 0.0 **** 0.06
4196 C 145.80988317984333 11.54050043414086 156.4378601864704 C 0.0 **** -0.24
4197 H 144.7326075569198 11.642202904800797 156.3097365318756 H 0.0 **** 0.06
4198 H 146.04233690311054 10.524999423123433 156.76303230542317 H 0.0 **** 0.06
4199 H 146.15626054076313 12.25053611293626 157.18895866194435 H 0.0 **** 0.06
4200 H 146.30936476451143 11.740964942926936 155.48992717854824 H 0.0 **** 0.06
4201 C 79.42873861525817 6.7029966301846 115.93231796299557 C 0.0 **** -0.24
4202 H 78.9478735861972 7.543640077621717 115.43201277862673 H 0.0 **** 0.06
4203 H 79.38121711931606 5.823367188806344 115.28975541113414 H 0.0 **** 0.06
4204 H 78.91546358216958 6.496349237991723 116.87119731516725 H 0.0 **** 0.06
4205 H 80.47117030161499 6.949645744320492 116.13421460611363 H 0.0 **** 0.06
4206 C 125.18199402467485 148.79163726437437 51.01413088502727 C 0.0 **** -0.24
4207 H 125.1139479340413 149.77037669188124 51.48981538201383 H 0.0 **** 0.06
4208 H 124.29627541994157 148.62580106519744 50.39934488951792 H 0.0 **** 0.06
4209 H 125.2433369507408 148.0191792447295 51.77936774184667 H 0.0 **** 0.06
4210 H 126.07210200980768 148.75379699668616 50.38663130250137 H 0.0 **** 0.06
4211 C 80.27856183615864 150.39935897824006 1.8337261870637462 C 0.0 **** -0.24
4212 H 81.03783728575308 150.30577930414003 2.610333230796755 H 0.0 **** 0.06
4213 H 79.59958946964099 151.2128787860289 2.0862966895182353 H 0.0 **** 0.06
4214 H 79.71772743751728 149.46705707849486 1.7601746268092597 H 0.0 **** 0.06
4215 H 80.76081702542695 150.60920419058613 0.878934178754605 H 0.0 **** 0.06
4216 C 161.7195943002734 100.71858121090503 26.341593312423697 C 0.0 **** -0.24
4217 H 161.5333764594905 101.75392957916654 26.62653105876234 H 0.0 **** 0.06
4218 H 161.1071341008357 100.057897581867 26.954856298631228 H 0.0 **** 0.06
4219 H 162.77378028584596 100.48419058191826 26.494596069567933 H 0.0 **** 0.06
4220 H 161.46522788683882 100.57990366884843 25.29077452475704 H 0.0 **** 0.06
4221 C 86.17480298781818 110.51739202659076 12.798557326554374 C 0.0 **** -0.24
4222 H 86.72094940536014 111.0215672368833 13.596511170419063 H 0.0 **** 0.06
4223 H 86.8279382734126 110.3925981959485 11.934618284744062 H 0.0 **** 0.06
4224 H 85.30827794890352 111.1155043253126 12.516766822503143 H 0.0 **** 0.06
4225 H 85.84346603258508 109.53907354566297 13.148843884730127 H 0.0 **** 0.06
4226 C 113.09998433100282 57.153250044977796 111.32578145764302 C 0.0 **** -0.24
4227 H 112.1878607524213 57.70100297888176 111.56293575553559 H 0.0 **** 0.06
4228 H 112.8536576766443 56.28450514022204 110.71456026004694 H 0.0 **** 0.06
4229 H 113.57661900832571 56.82545104132794 112.24995896907785 H 0.0 **** 0.06
4230 H 113.78093717973766 57.803466454386424 110.77677718802886 H 0.0 **** 0.06
4231 C 9.149069431171682 130.69519508534154 109.86096537727363 C 0.0 **** -0.24
4232 H 10.0796874781133 130.4866259655039 109.33315401903974 H 0.0 **** 0.06
4233 H 9.113438727920396 130.1085426891534 110.77962870694833 H 0.0 **** 0.06
4234 H 8.303787792122819 130.42708361224584 109.2262070919198 H 0.0 **** 0.06
4235 H 9.09961683454705 131.75619327865957 110.10417538236953 H 0.0 **** 0.06
4236 C 0.3692295339439511 89.0866448588636 59.93956956012562 C 0.0 **** -0.24
4237 H -0.42962803955188633 89.0822567543273 60.68150769413471 H 0.0 **** 0.06
4238 H 0.6186569791084082 88.06114782282624 59.668293658379184 H 0.0 **** 0.06
4239 H 1.2489360267792051 89.57763114977006 60.35519414099251 H 0.0 **** 0.06
4240 H 0.03715389219283338 89.62657038344557 59.05197556640904 H 0.0 **** 0.06
4241 C 16.991734540549317 131.31496285315654 27.256080462611315 C 0.0 **** -0.24
4242 H 17.095777584528207 130.77300367298335 26.31612879019645 H 0.0 **** 0.06
4243 H 16.00673765924921 131.12044137893702 27.680316710169905 H 0.0 **** 0.06
4244 H 17.103722135112776 132.38385814888017 27.07284428168269 H 0.0 **** 0.06
4245 H 17.760304838905483 130.98395889678 27.95334288312226 H 0.0 **** 0.06
4246 C 72.06793540213653 3.391674448032049 68.32503057416159 C 0.0 **** -0.24
4247 H 71.7522166270987 4.395018727141945 68.60969660264061 H 0.0 **** 0.06
4248 H 71.21817670293005 2.8465568077529397 67.91295801283593 H 0.0 **** 0.06
4249 H 72.44612238486945 2.8678075530385385 69.203374449823 H 0.0 **** 0.06
4250 H 72.85626883839178 3.457842634592531 67.57488923142023 H 0.0 **** 0.06
4251 C 141.99937152145057 158.6485404375557 82.40492428990039 C 0.0 **** -0.24
4252 H 141.53212627564204 158.11305959133733 83.23136000915034 H 0.0 **** 0.06
4253 H 142.4103375848703 159.59063623186387 82.76867459516419 H 0.0 **** 0.06
4254 H 141.25285348971303 158.84987507701942 81.63581175907203 H 0.0 **** 0.06
4255 H 142.79995216871396 158.04065615339437 81.98356318935058 H 0.0 **** 0.06
4256 C 122.39823772501316 42.46399356024689 99.30308687055191 C 0.0 **** -0.24
4257 H 121.46980688990811 43.03428466093497 99.28215633593078 H 0.0 **** 0.06
4258 H 122.96926967168821 42.732120261378554 100.19176703374134 H 0.0 **** 0.06
4259 H 122.98443115435117 42.69075103795694 98.4115986672445 H 0.0 **** 0.06
4260 H 122.1698734130521 41.398074627346645 99.32570208289243 H 0.0 **** 0.06
4261 C 16.055070726174677 24.277411793831448 56.34773444938037 C 0.0 **** -0.24
4262 H 16.825216642034633 24.957631632497737 55.983462424896175 H 0.0 **** 0.06
4263 H 16.271194131461556 23.266307045388032 56.0036070048688 H 0.0 **** 0.06
4264 H 15.083249037624796 24.591307295688665 55.96733852089528 H 0.0 **** 0.06
4265 H 16.04077708293923 24.295192965734657 57.437691508357204 H 0.0 **** 0.06
4266 C 153.66863920446443 71.46777631663491 142.79599749566302 C 0.0 **** -0.24
4267 H 153.63444588761956 72.3433988935463 142.14764205285357 H 0.0 **** 0.06
4268 H 153.38138831312352 71.75383250536251 143.80866313172177 H 0.0 **** 0.06
4269 H 154.68115827344087 71.06314875661309 142.80688587231236 H 0.0 **** 0.06
4270 H 152.97913640342745 70.71121554328909 142.42261228877237 H 0.0 **** 0.06
4271 C 77.97367910200957 114.19785001175552 84.4270860568123 C 0.0 **** -0.24
4272 H 78.80598635409578 114.52687279053094 85.04993076455906 H 0.0 **** 0.06
4273 H 77.05699204424812 114.1959400734489 85.0175410271022 H 0.0 **** 0.06
4274 H 78.17149065154952 113.19225432639405 84.05740953404865 H 0.0 **** 0.06
4275 H 77.86117092049072 114.87917463656109 83.5831953363296 H 0.0 **** 0.06
4276 C 3.9401982639044775 140.98005626210954 0.39630143154649744 C 0.0 **** -0.24
4277 H 4.948658010315228 140.69379065381264 0.0979027156947545 H 0.0 **** 0.06
4278 H 3.6323487760952275 140.38378733733146 1.2552274568191777 H 0.0 **** 0.06
4279 H 3.2537669069931923 140.80584944594523 -0.4325494876580329 H 0.0 **** 0.06
4280 H 3.926264238643533 142.0371087274597 0.6632673585025941 H 0.0 **** 0.06
4281 C 98.56696996414485 17.135765609299142 58.85864489904107 C 0.0 **** -0.24
4282 H 98.19874492072816 17.067856851532184 57.834595780425516 H 0.0 **** 0.06
4283 H 99.0596502638449 18.097939730183185 59.00365518390342 H 0.0 **** 0.06
4284 H 99.27965543555734 16.331074716416794 59.04222287497109 H 0.0 **** 0.06
4285 H 97.73131858534731 17.04594902844599 59.55217614462656 H 0.0 **** 0.06
4286 C 23.461616656620947 8.635390120947072 117.75382042937485 C 0.0 **** -0.24
4287 H 23.978863489946832 9.129304182896199 116.93037430928314 H 0.0 **** 0.06
4288 H 22.385862751942625 8.758441920278173 117.63250424294617 H 0.0 **** 0.06
4289 H 23.774987880504426 9.081935910191689 118.69800537940623 H 0.0 **** 0.06
4290 H 23.709560648100194 7.574750531810906 117.75270481096155 H 0.0 **** 0.06
4291 C 80.16936380606569 54.82388146189879 157.80176391654368 C 0.0 **** -0.24
4292 H 80.97434527203836 55.54889407300402 157.68739885497592 H 0.0 **** 0.06
4293 H 80.43005145193376 53.906064099917955 157.2755148570871 H 0.0 **** 0.06
4294 H 79.24933139338111 55.23388050045742 157.3855212045505 H 0.0 **** 0.06
4295 H 80.02417590226048 54.60698096610042 158.8607915604606 H 0.0 **** 0.06
4296 C 80.51203408415485 41.4140735811133 147.89591286585093 C 0.0 **** -0.24
4297 H 80.4704317721958 40.35501131644159 147.64227885754536 H 0.0 **** 0.06
4298 H 79.98255023876942 41.99059762297003 147.1374059499638 H 0.0 **** 0.06
4299 H 81.55189527746957 41.737217479327725 147.93723544604626 H 0.0 **** 0.06
4300 H 80.04295147355373 41.574126108769576 148.8679445634425 H 0.0 **** 0.06
4301 C 13.867063468542256 40.383586513396864 14.468518617013274 C 0.0 **** -0.24
4302 H 13.433702885711057 40.25352034969674 15.459840075540626 H 0.0 **** 0.06
4303 H 13.068697591157473 40.44785281828311 13.729161716901103 H 0.0 **** 0.06
4304 H 14.50904949797814 39.533405766634274 14.237710264729913 H 0.0 **** 0.06
4305 H 14.456800003919625 41.30053086292381 14.448801602656033 H 0.0 **** 0.06
4306 C 85.02141635347805 135.6124488310884 0.3230184610713138 C 0.0 **** -0.24
4307 H 85.62323292803593 135.30249486031454 -0.5310132643881786 H 0.0 **** 0.06
4308 H 85.62627472911612 136.22908162311816 0.9876365410308665 H 0.0 **** 0.06
4309 H 84.67356783445746 134.72998649763124 0.8610858625558535 H 0.0 **** 0.06
4310 H 84.16348474758189 136.18716968869168 -0.025900084046782013 H 0.0 **** 0.06
4311 C 148.29111560236834 51.24846102769311 108.7171390664972 C 0.0 **** -0.24
4312 H 149.06902616843087 51.51774604981108 108.00250168156938 H 0.0 **** 0.06
4313 H 148.71130629669622 51.23541302366931 109.72345235020768 H 0.0 **** 0.06
4314 H 147.90005837613313 50.2605688104851 108.47371747920806 H 0.0 **** 0.06
4315 H 147.48476481163732 51.97966632602777 108.67003238874494 H 0.0 **** 0.06
4316 C 10.124732403901142 0.3484293099892142 57.14297260525649 C 0.0 **** -0.24
4317 H 10.812505253744455 0.5478342055055805 56.32235881473872 H 0.0 **** 0.06
4318 H 10.397244026437328 -0.5902215772624295 57.626321143120634 H 0.0 **** 0.06
4319 H 9.108053365527006 0.27724235346374115 56.75584856810167 H 0.0 **** 0.06
4320 H 10.180629965902916 1.160784316669364 57.868796767722216 H 0.0 **** 0.06
4321 C 106.44768805740159 125.81534445086635 80.74708840515694 C 0.0 **** -0.24
4322 H 105.3932385952026 125.7098650491134 80.49419267865264 H 0.0 **** 0.06
4323 H 106.54687085154924 126.41175764327474 81.65478437523092 H 0.0 **** 0.06
4324 H 106.969370638539 126.31096690222799 79.92786953901157 H 0.0 **** 0.06
4325 H 106.883298747785 124.82941149874623 80.91079671865742 H 0.0 **** 0.06
4326 C 44.06657470867205 77.89045985947348 24.929919946470363 C 0.0 **** -0.24
4327 H 44.427572988092734 77.53604426653257 25.89546470918318 H 0.0 **** 0.06
4328 H 43.061924875986136 77.50446052818654 24.75346279407576 H 0.0 **** 0.06
4329 H 44.73408533692948 77.54175527050097 24.14233089920311 H 0.0 **** 0.06
4330 H 44.04225686929813 78.98090554620308 24.92859705178072 H 0.0 **** 0.06
4331 C 70.18813569084426 143.25668161971856 110.25554544962608 C 0.0 **** -0.24
4332 H 69.17599060117085 142.85868896565847 110.32778822949851 H 0.0 **** 0.06
4333 H 70.90754087323886 142.4579335190616 110.43741223249629 H 0.0 **** 0.06
4334 H 70.32306679487225 144.04410659928848 110.99847439479424 H 0.0 **** 0.06
4335 H 70.34569812653808 143.66821969643306 109.25853574572582 H 0.0 **** 0.06
4336 C 62.1484942315563 153.57757995742259 16.48384506705969 C 0.0 **** -0.24
4337 H 63.044652156130965 153.0530418882173 16.152392741657195 H 0.0 **** 0.06
4338 H 61.27455330741927 152.94977534433667 16.308478303400705 H 0.0 **** 0.06
4339 H 62.046506600585616 154.50875002757982 15.92806307086937 H 0.0 **** 0.06
4340 H 62.23040243478937 153.79734859447302 17.54855801615622 H 0.0 **** 0.06
4341 C 37.58584055134348 45.02869581114635 48.06414045348146 C 0.0 **** -0.24
4342 H 36.9576553959205 45.06056852385257 47.17387790819123 H 0.0 **** 0.06
4343 H 37.4514536671341 45.948036837299355 48.63501883852621 H 0.0 **** 0.06
4344 H 38.63080078644488 44.933355732059624 47.768711547393934 H 0.0 **** 0.06
4345 H 37.30169580518971 44.17418841510349 48.67873442163227 H 0.0 **** 0.06
4346 C 146.80402915070746 2.0108945265014597 101.40777185683748 C 0.0 **** -0.24
4347 H 147.03620501446844 1.060260842501151 100.92763247676442 H 0.0 **** 0.06
4348 H 147.72960829955133 2.548857792158458 101.61435995037118 H 0.0 **** 0.06
4349 H 146.2738807604191 1.8260610384176914 102.34167822298457 H 0.0 **** 0.06
4350 H 146.17667773820295 2.6077854992419702 100.74581700512499 H 0.0 **** 0.06
4351 C 34.62326256809524 125.95130098525146 42.68503150469121 C 0.0 **** -0.24
4352 H 33.98204803636986 126.40024068774153 41.926295758722176 H 0.0 **** 0.06
4353 H 35.054026378187814 125.02894946460117 42.29684722601141 H 0.0 **** 0.06
4354 H 34.0331883456374 125.73166540505679 43.575313767688954 H 0.0 **** 0.06
4355 H 35.422600107628 126.64735917579588 42.9409443299395 H 0.0 **** 0.06
4356 C 56.4480070217889 125.71158870768636 1.3262006375355995 C 0.0 **** -0.24
4357 H 55.470223787355636 125.79628351167827 0.8519258283919129 H 0.0 **** 0.06
4358 H 56.6888869177086 124.65837305140451 1.4735048793323529 H 0.0 **** 0.06
4359 H 56.42971214865145 126.21870677533593 2.2905353300307922 H 0.0 **** 0.06
4360 H 57.202006628065234 126.17181405847967 0.6873609970224663 H 0.0 **** 0.06
4361 C 144.7809326906539 42.7512323113464 117.12125596013186 C 0.0 **** -0.24
4362 H 144.17772273887044 42.301840347413446 116.33263535316394 H 0.0 **** 0.06
4363 H 145.29663953294408 41.965246754876944 117.67473502297742 H 0.0 **** 0.06
4364 H 144.13553313143407 43.31038644103637 117.79860957611828 H 0.0 **** 0.06
4365 H 145.51450958345134 43.4246428319081 116.67824798939375 H 0.0 **** 0.06
4366 C 115.56255850375481 139.7364966789903 35.332513106213355 C 0.0 **** -0.24
4367 H 116.5139103111934 140.1941026471323 35.06105892208194 H 0.0 **** 0.06
4368 H 114.96746573956733 139.57410465431695 34.43460038910251 H 0.0 **** 0.06
4369 H 115.02327355141631 140.39592192333342 36.01225638989007 H 0.0 **** 0.06
4370 H 115.7472380119664 138.7803856616505 35.824161470527685 H 0.0 **** 0.06
4371 C 29.167137171745026 65.01957096933025 14.665506384319826 C 0.0 **** -0.24
4372 H 30.10512989538836 64.48510744740922 14.511999776917698 H 0.0 **** 0.06
4373 H 29.021905972480567 65.20162335844924 15.73046257603491 H 0.0 **** 0.06
4374 H 28.341471409309065 64.41985078004296 14.28292359743753 H 0.0 **** 0.06
4375 H 29.201299758062987 65.97144065194809 14.134809763033935 H 0.0 **** 0.06
4376 C 117.4035705320627 84.76783146430523 76.65786172475191 C 0.0 **** -0.24
4377 H 116.63805080233786 84.17549686577433 76.15656727540392 H 0.0 **** 0.06
4378 H 117.37726402703925 85.79046159216716 76.2793614019995 H 0.0 **** 0.06
4379 H 118.38446658717186 84.3330652528814 76.46353429044319 H 0.0 **** 0.06
4380 H 117.21381668044651 84.7723828298985 77.73074875838998 H 0.0 **** 0.06
4381 C 56.25253132595276 146.55335391972147 5.609175615299364 C 0.0 **** -0.24
4382 H 55.28149356271621 147.02979138256876 5.74829749449475 H 0.0 **** 0.06
4383 H 56.223620427010246 145.92605634699606 4.71763772852924 H 0.0 **** 0.06
4384 H 56.48212342178539 145.93788154469883 6.479108996127536 H 0.0 **** 0.06
4385 H 57.0192761109804 147.31870893300805 5.491655509336795 H 0.0 **** 0.06
4386 C 82.51839074133525 96.79658270765148 54.68516826909861 C 0.0 **** -0.24
4387 H 81.58126222842056 96.83941605709106 54.13119961036021 H 0.0 **** 0.06
4388 H 82.65440179605869 97.72518437247297 55.24043291561874 H 0.0 **** 0.06
4389 H 83.34664001654016 96.66555747904945 53.98805965893469 H 0.0 **** 0.06
4390 H 82.49260261715705 95.95797513937187 55.38000791503606 H 0.0 **** 0.06
4391 C 14.052167164641837 158.58253490494712 96.3613581772301 C 0.0 **** -0.24
4392 H 12.979765332914255 158.41240480166724 96.45406685838026 H 0.0 **** 0.06
4393 H 14.228737301859624 159.46281876241756 95.74290430934578 H 0.0 **** 0.06
4394 H 14.519188319663854 157.71318491992423 95.89816306710937 H 0.0 **** 0.06
4395 H 14.480759216322795 158.74063978056785 97.35162561289482 H 0.0 **** 0.06
4396 C 110.50925748299 81.76521067650327 21.949636365325205 C 0.0 **** -0.24
4397 H 110.21666217929959 82.81510135794781 21.97827932800263 H 0.0 **** 0.06
4398 H 111.24956972614552 81.57380658111742 22.72767503361308 H 0.0 **** 0.06
4399 H 110.93892092413932 81.534455785678 20.974875696733704 H 0.0 **** 0.06
4400 H 109.63368744419171 81.13877479346439 22.118737026338778 H 0.0 **** 0.06
4401 C 139.97087842584557 126.66272010212882 113.44789357000766 C 0.0 **** -0.24
4402 H 139.70676372801788 127.44857492069602 114.15636059187318 H 0.0 **** 0.06
4403 H 141.02756593072542 126.74487546318221 113.1917102455796 H 0.0 **** 0.06
4404 H 139.36813167138806 126.7699147841318 112.54623315915299 H 0.0 **** 0.06
4405 H 139.78088885805775 125.68911965612065 113.89845317565803 H 0.0 **** 0.06
4406 C 155.4279569792851 96.34377579540761 92.35032096054421 C 0.0 **** -0.24
4407 H 154.45321949255214 95.8703656189074 92.4713189599091 H 0.0 **** 0.06
4408 H 155.4206591432217 96.96482499606341 91.45456737350314 H 0.0 **** 0.06
4409 H 156.1954551175833 95.57543352104638 92.25323010099683 H 0.0 **** 0.06
4410 H 155.64137992674847 96.96313853157147 93.2211867862025 H 0.0 **** 0.06
4411 C 76.2899847758271 47.52946059545671 95.11082686524657 C 0.0 **** -0.24
4412 H 77.00884614283896 47.39156918229557 94.30376173791359 H 0.0 **** 0.06
4413 H 76.82214324637187 47.69366412419507 96.04749831318242 H 0.0 **** 0.06
4414 H 75.66590268185735 46.639436551583586 95.19770971421053 H 0.0 **** 0.06
4415 H 75.66091244688153 48.39327355150658 94.89367929637876 H 0.0 **** 0.06
4416 C 36.12550837764667 159.11511873747386 81.35762158394618 C 0.0 **** -0.24
4417 H 35.37690312455845 158.38596613766248 81.04542523461839 H 0.0 **** 0.06
4418 H 36.189578757493024 159.12539883273843 82.44591344585335 H 0.0 **** 0.06
4419 H 35.8407940545039 160.10350635447125 80.99931239340349 H 0.0 **** 0.06
4420 H 37.09455824299897 158.84127641156468 80.93934939748065 H 0.0 **** 0.06
4421 C 19.87799117627651 115.36384777155428 18.841354699728782 C 0.0 **** -0.24
4422 H 20.265616182577304 115.61645036368682 19.828889851811496 H 0.0 **** 0.06
4423 H 20.701156595532552 115.05159869196143 18.197944185214325 H 0.0 **** 0.06
4424 H 19.389636214423007 116.23604907672373 18.408553217129082 H 0.0 **** 0.06
4425 H 19.157717774218952 114.5501630733257 18.931777720889066 H 0.0 **** 0.06
4426 C 122.39648575808835 142.52778163273533 32.33432522024822 C 0.0 **** -0.24
4427 H 121.84127832634323 142.7860346340276 33.23611896239282 H 0.0 **** 0.06
4428 H 123.17408510327056 143.27305425351614 32.161739332688626 H 0.0 **** 0.06
4429 H 121.71615002763247 142.5085359964614 31.482164557830373 H 0.0 **** 0.06
4430 H 122.85285421046066 141.5459949497847 32.456728538540375 H 0.0 **** 0.06
4431 C 17.873301814447927 96.0470895260869 8.002241639672434 C 0.0 **** -0.24
4432 H 17.915683216592157 96.79955504006892 8.789682000424342 H 0.0 **** 0.06
4433 H 18.821430251499294 96.03048174858745 7.465497304986144 H 0.0 **** 0.06
4434 H 17.067889588132232 96.29115841072128 7.310618667344066 H 0.0 **** 0.06
4435 H 17.688171630615216 95.06820094065836 8.445148881858216 H 0.0 **** 0.06
4436 C 42.07036846075992 101.19404839552632 133.77442897191298 C 0.0 **** -0.24
4437 H 42.59632992186967 101.7245930219087 132.98093997655377 H 0.0 **** 0.06
4438 H 41.89087928399047 101.87283206558536 134.60869586363708 H 0.0 **** 0.06
4439 H 42.67757083332637 100.35370214351656 134.11306351693315 H 0.0 **** 0.06
4440 H 41.118296671505334 100.82387125100317 133.39496484126136 H 0.0 **** 0.06
4441 C 84.86699202896034 83.29048021634122 2.836732791315228 C 0.0 **** -0.24
4442 H 85.34130696001193 83.96243166096235 2.1209957736880654 H 0.0 **** 0.06
4443 H 84.6084743422397 83.84576460664476 3.738420492676198 H 0.0 **** 0.06
4444 H 85.55559659027614 82.48422731858489 3.0890874482696233 H 0.0 **** 0.06
4445 H 83.96188825835947 82.87156040073273 2.396365644076127 H 0.0 **** 0.06
4446 C 135.18990329125333 13.563969823888073 104.99545562867564 C 0.0 **** -0.24
4447 H 135.3804487114322 13.811822322575551 103.95194549749363 H 0.0 **** 0.06
4448 H 135.3671635805251 14.44236336863446 105.61605729442434 H 0.0 **** 0.06
4449 H 135.85781598821728 12.759721052936754 105.30508996225345 H 0.0 **** 0.06
4450 H 134.1548025037151 13.241418343226343 105.10928782002424 H 0.0 **** 0.06
4451 C 27.308734420987292 154.9289379919415 4.246196513418965 C 0.0 **** -0.24
4452 H 26.71142711193852 155.78888405775797 4.550378399318959 H 0.0 **** 0.06
4453 H 26.793496945864746 154.3937591395964 3.448301903331867 H 0.0 **** 0.06
4454 H 27.448287034502613 154.26448255544386 5.099536966567598 H 0.0 **** 0.06
4455 H 28.27980591392287 155.2701058992496 3.8888319378991696 H 0.0 **** 0.06
4456 C 0.49024419590642765 82.99766219713311 43.91954151374033 C 0.0 **** -0.24
4457 H 0.21516235500749303 83.36904538809407 42.93260618245256 H 0.0 **** 0.06
4458 H 1.3326184086195667 83.5749495340857 44.30232331937937 H 0.0 **** 0.06
4459 H 0.7728384163032729 81.94739114632608 43.84621288024525 H 0.0 **** 0.06
4460 H -0.35870544246239433 83.09990693306321 44.59571707516439 H 0.0 **** 0.06
4461 C 130.27611330127024 62.261187249465436 26.753839852406955 C 0.0 **** -0.24
4462 H 130.58460346751895 61.46850254869895 27.434496593630897 H 0.0 **** 0.06
4463 H 131.15701631744378 62.70839805448165 26.29248288639952 H 0.0 **** 0.06
4464 H 129.72936677903098 63.024588791505934 27.308154030797688 H 0.0 **** 0.06
4465 H 129.63154609942305 61.84511091913021 25.979285478472427 H 0.0 **** 0.06
4466 C 46.16741733456837 41.380192677635776 55.154413289643415 C 0.0 **** -0.24
4467 H 46.60452590526742 42.37778235242561 55.214194942447094 H 0.0 **** 0.06
4468 H 45.62319705566762 41.27902990891883 54.215469076251 H 0.0 **** 0.06
4469 H 45.48373183123147 41.23174054346974 55.98908621550362 H 0.0 **** 0.06
4470 H 46.96107368605283 40.63402805063329 55.1973063290211 H 0.0 **** 0.06
4471 C 51.98094586805078 115.67002101561062 122.02977061956614 C 0.0 **** -0.24
4472 H 52.42986978562985 116.435535892671 122.66260246350896 H 0.0 **** 0.06
4473 H 50.90248844688827 115.82335054820837 121.98297829935086 H 0.0 **** 0.06
4474 H 52.19040628709365 114.68517011342948 122.44723425701409 H 0.0 **** 0.06
4475 H 52.401710041794644 115.73531960030084 121.02612153925875 H 0.0 **** 0.06
4476 C 7.111778991946906 124.66063337729179 21.30141522168617 C 0.0 **** -0.24
4477 H 7.427474630581102 123.61869728695643 21.355186085882018 H 0.0 **** 0.06
4478 H 7.6492618765136555 125.16149670532147 20.495823544542368 H 0.0 **** 0.06
4479 H 7.330118873072969 125.15525208086919 22.247154006570263 H 0.0 **** 0.06
4480 H 6.0399254061826895 124.70506015204236 21.10661524976328 H 0.0 **** 0.06
4481 C 76.56854526763561 72.54640830252735 121.25115875575892 C 0.0 **** -0.24
4482 H 76.23841113266681 73.08680863487272 122.13804926442177 H 0.0 **** 0.06
4483 H 77.54366085284337 72.09703599427804 121.44172110797254 H 0.0 **** 0.06
4484 H 76.64476007742445 73.23818414137816 120.4118570411099 H 0.0 **** 0.06
4485 H 75.84815713760185 71.76412038529168 121.01272343332502 H 0.0 **** 0.06
4486 C 80.48024610760115 26.1573488485188 47.96037846232133 C 0.0 **** -0.24
4487 H 79.91392867031794 27.08448438251002 47.868808078396796 H 0.0 **** 0.06
4488 H 80.01986326570628 25.524369968175293 48.71968028872209 H 0.0 **** 0.06
4489 H 81.50624771508029 26.38571160569129 48.25024917691712 H 0.0 **** 0.06
4490 H 80.48078848095872 25.636451849605443 47.00336234362092 H 0.0 **** 0.06
4491 C 158.3656372112171 1.7931098098106872 10.432470451455572 C 0.0 **** -0.24
4492 H 158.91516534810373 2.7304923515531243 10.519594832725971 H 0.0 **** 0.06
4493 H 158.02897770201736 1.665318281404467 9.402684251686054 H 0.0 **** 0.06
4494 H 157.50306399304122 1.815004453204267 11.097194357676784 H 0.0 **** 0.06
4495 H 159.01676734413473 0.9641858449866731 10.708083286125316 H 0.0 **** 0.06
4496 C 148.22533845040272 105.27616971612105 159.56727936075765 C 0.0 **** -0.24
4497 H 149.05410375759752 104.59909979800096 159.35982996024464 H 0.0 **** 0.06
4498 H 148.23451245958694 105.54843241628322 160.62297852906462 H 0.0 **** 0.06
4499 H 147.28423584096538 104.7809489665884 159.3269209588103 H 0.0 **** 0.06
4500 H 148.3289962044164 106.17489506645668 158.95914559591873 H 0.0 **** 0.06
4501 C 52.89179716331127 58.08115960279213 74.514825454684 C 0.0 **** -0.24
4502 H 52.40093453491011 58.305127313466585 75.46249060280098 H 0.0 **** 0.06
4503 H 52.41042690325909 57.220431082748064 74.05128913102862 H 0.0 **** 0.06
4504 H 53.94301745094752 57.856323794265165 74.69605909614756 H 0.0 **** 0.06
4505 H 52.81314056251307 58.94281225992313 73.85260746547738 H 0.0 **** 0.06
4506 C 105.95308130201977 35.47995565032852 161.66049811111003 C 0.0 **** -0.24
4507 H 105.34899282742296 34.950616645142645 162.396761760447 H 0.0 **** 0.06
4508 H 105.53743411876698 36.47489375181357 161.4974966285119 H 0.0 **** 0.06
4509 H 105.95067639047065 34.926215986325246 160.72243232903074 H 0.0 **** 0.06
4510 H 106.975750441153 35.569350476515865 162.02707587430027 H 0.0 **** 0.06
4511 C 48.50872351026834 24.59584110637212 126.76766278346349 C 0.0 **** -0.24
4512 H 48.267190031714335 24.307160690153893 127.79012208418249 H 0.0 **** 0.06
4513 H 47.68766351798956 25.18035434226121 126.35206004683522 H 0.0 **** 0.06
4514 H 48.659816617127944 23.70061075325384 126.1633752824406 H 0.0 **** 0.06
4515 H 49.42007174246555 25.193957606807004 126.76451417686434 H 0.0 **** 0.06
4516 C 90.98307799118874 96.39288405102911 107.47552249907653 C 0.0 **** -0.24
4517 H 91.3204838907584 95.35802882985809 107.53311403956434 H 0.0 **** 0.06
4518 H 91.75283832499036 96.99999992877201 107.0007550319917 H 0.0 **** 0.06
4519 H 90.79172585987996 96.76873221305254 108.48117075277372 H 0.0 **** 0.06
4520 H 90.06618809311226 96.44369828890501 106.88896929590507 H 0.0 **** 0.06
4521 C 162.88409598670424 61.47794083393427 42.57706157167476 C 0.0 **** -0.24
4522 H 162.79932266385038 60.86699911784788 41.67820309134741 H 0.0 **** 0.06
4523 H 161.8892121244465 61.68039276163633 42.97421668732969 H 0.0 **** 0.06
4524 H 163.3767928849387 62.418294639710055 42.33151459368814 H 0.0 **** 0.06
4525 H 163.47203964752836 60.943836489211066 43.32419321215151 H 0.0 **** 0.06
4526 C 10.854828139165079 45.31867770481665 143.27242546133547 C 0.0 **** -0.24
4527 H 9.89714902293872 45.638209956577654 142.86140270164617 H 0.0 **** 0.06
4528 H 11.645743998606179 45.96827547031083 142.8978714684098 H 0.0 **** 0.06
4529 H 11.054463269753342 44.291172302352805 142.97044321086437 H 0.0 **** 0.06
4530 H 10.82069251635653 45.37745548599263 144.36047545963095 H 0.0 **** 0.06
4531 C 67.81192618203693 148.6839919021266 127.29837856772937 C 0.0 **** -0.24
4532 H 67.43217362906273 148.8807717383368 128.3006966482775 H 0.0 **** 0.06
4533 H 67.97933038018243 147.61374195682555 127.17679423835557 H 0.0 **** 0.06
4534 H 68.75079740816079 149.21750605789435 127.15353626766273 H 0.0 **** 0.06
4535 H 67.08368559919006 149.02467078815332 126.56125140377756 H 0.0 **** 0.06
4536 C 105.81899296813546 76.60070518326667 69.66178553015955 C 0.0 **** -0.24
4537 H 105.83707590004317 76.15985814397877 70.65904366347826 H 0.0 **** 0.06
4538 H 104.90380106976062 77.18109720226008 69.53818214090323 H 0.0 **** 0.06
4539 H 105.85236908092733 75.8089397168528 68.9137485517878 H 0.0 **** 0.06
4540 H 106.6833402818634 77.25395750880928 69.53872862153324 H 0.0 **** 0.06
4541 C 117.53399006400332 84.06749261900842 44.76323864544685 C 0.0 **** -0.24
4542 H 117.40555729157734 83.05379149175607 45.142939722848325 H 0.0 **** 0.06
4543 H 118.52211319961037 84.16407939929371 44.31370498770269 H 0.0 **** 0.06
4544 H 117.43667936582494 84.77780883627051 45.58415420136566 H 0.0 **** 0.06
4545 H 116.77118927477522 84.27340633984653 44.012356929709426 H 0.0 **** 0.06
4546 C 48.98874973624066 111.57779156268563 57.71133025103671 C 0.0 **** -0.24
4547 H 47.94967139468838 111.80718889121303 57.94898323823145 H 0.0 **** 0.06
4548 H 49.094474214886134 111.44585072936306 56.63490339228724 H 0.0 **** 0.06
4549 H 49.28375277611792 110.66074054742742 58.22107086156177 H 0.0 **** 0.06
4550 H 49.625816862246666 112.39815428898686 58.042025478375706 H 0.0 **** 0.06
4551 C 127.06293021253799 129.87836372120415 88.93237812027296 C 0.0 **** -0.24
4552 H 126.26028253152589 130.57148410165036 88.6816538159665 H 0.0 **** 0.06
4553 H 127.92645838085929 130.43862584923968 89.29316941158855 H 0.0 **** 0.06
4554 H 127.34355254367534 129.31097411371303 88.04458139835762 H 0.0 **** 0.06
4555 H 126.72332153190709 129.19350327873227 89.7097473963883 H 0.0 **** 0.06
4556 C 23.827484543339438 37.82167608117925 48.33209809882081 C 0.0 **** -0.24
4557 H 24.027623440659227 38.2295236863294 47.34089144412562 H 0.0 **** 0.06
4558 H 23.054765837366404 38.4163419435198 48.81922043122569 H 0.0 **** 0.06
4559 H 24.73991032900551 37.85088963343446 48.926967482820174 H 0.0 **** 0.06
4560 H 23.4879902271083 36.790180734756916 48.237595096191455 H 0.0 **** 0.06
4561 C 63.020497036835536 82.22889649938242 111.84089362107974 C 0.0 **** -0.24
4562 H 62.62002802691518 82.90361969129793 112.59792074136203 H 0.0 **** 0.06
4563 H 63.70465906688747 82.77659476943217 111.19243869520844 H 0.0 **** 0.06
4564 H 62.201737149138125 81.82347396607841 111.24631925544347 H 0.0 **** 0.06
4565 H 63.555733535437696 81.41373003141678 112.32816601433731 H 0.0 **** 0.06
4566 C 79.66324186329601 75.33470239944957 159.13732633235517 C 0.0 **** -0.24
4567 H 79.95529889564602 74.74374561594676 160.0049060688789 H 0.0 **** 0.06
4568 H 79.79744490071867 76.39415040698998 159.3591919834487 H 0.0 **** 0.06
4569 H 78.61695129233833 75.14194389014659 158.90151701208998 H 0.0 **** 0.06
4570 H 80.28454336556602 75.05981432436548 158.28532467345954 H 0.0 **** 0.06
4571 C 16.897807236829095 46.49238417263979 7.412882107341943 C 0.0 **** -0.24
4572 H 17.043159506568657 46.99414330554353 6.456430679582553 H 0.0 **** 0.06
4573 H 16.374429178611763 47.16136971464206 8.097042652920237 H 0.0 **** 0.06
4574 H 17.866789370682113 46.22682181137003 7.834640437608897 H 0.0 **** 0.06
4575 H 16.305753755859655 45.58913026170444 7.262376517843734 H 0.0 **** 0.06
4576 C 104.35606211078013 21.702997635566533 14.044526150555669 C 0.0 **** -0.24
4577 H 103.26937310034376 21.783504160775237 14.050970465116677 H 0.0 **** 0.06
4578 H 104.64385558816909 20.654112867568358 14.11747489892582 H 0.0 **** 0.06
4579 H 104.76522057462137 22.25177418793055 14.89271451381012 H 0.0 **** 0.06
4580 H 104.74569048125963 22.123478509432687 13.11804712240334 H 0.0 **** 0.06
4581 C 63.06893651808133 130.2050695944714 161.55316832858833 C 0.0 **** -0.24
4582 H 62.99948335360159 129.24241511709255 162.05859927085828 H 0.0 **** 0.06
4583 H 62.06697312774257 130.61086246717628 161.40703338863767 H 0.0 **** 0.06
4584 H 63.55196194192628 130.07319601815925 160.58480854759964 H 0.0 **** 0.06
4585 H 63.65535561436484 130.89388041639177 162.16190733295167 H 0.0 **** 0.06
4586 C 50.63150362811683 114.86986793669752 24.860781135643975 C 0.0 **** -0.24
4587 H 51.54353668265702 114.9220658074708 24.26684012741586 H 0.0 **** 0.06
4588 H 50.13626230524534 113.91526016550964 24.68097870419834 H 0.0 **** 0.06
4589 H 49.9650301487917 115.68479610920323 24.57606536717236 H 0.0 **** 0.06
4590 H 50.880563139518614 114.95646629288984 25.917557311652615 H 0.0 **** 0.06
4591 C 139.004649676579 66.39601582982048 30.03339345550083 C 0.0 **** -0.24
4592 H 139.50018049576997 66.44320350801225 31.003217869118572 H 0.0 **** 0.06
4593 H 137.92480849142783 66.41308720676922 30.176827772266122 H 0.0 **** 0.06
4594 H 139.29032120483654 65.47450782427144 29.525128111174745 H 0.0 **** 0.06
4595 H 139.3058186540626 67.25244476471647 29.42978795952166 H 0.0 **** 0.06
4596 C 37.67697403887786 154.4752103467656 149.3984149993534 C 0.0 **** -0.24
4597 H 36.93917010018998 155.09003152321958 148.8831935748999 H 0.0 **** 0.06
4598 H 37.44534808225097 153.4218061634175 149.2418362959815 H 0.0 **** 0.06
4599 H 37.654003970554925 154.69773270107692 150.46516568749115 H 0.0 **** 0.06
4600 H 38.669185936519625 154.69225021606007 149.003388307624 H 0.0 **** 0.06
4601 C 82.69362706676161 63.10625301268533 31.85303288998127 C 0.0 **** -0.24
4602 H 82.46350434690903 63.948027108429926 31.19978732626958 H 0.0 **** 0.06
4603 H 83.77485780972036 62.98080473464307 31.915464322862462 H 0.0 **** 0.06
4604 H 82.24562745196812 62.19900725398276 31.447621572898584 H 0.0 **** 0.06
4605 H 82.29163492908636 63.296915778737116 32.84709316307706 H 0.0 **** 0.06
4606 C 83.33035374287002 127.40783029317447 41.35545733462311 C 0.0 **** -0.24
4607 H 83.73081828594948 127.20705282345509 40.36136255161068 H 0.0 **** 0.06
4608 H 83.17816755670358 126.46686194231003 41.8834372210426 H 0.0 **** 0.06
4609 H 82.37937319519483 127.93226140669375 41.26377390187925 H 0.0 **** 0.06
4610 H 84.03472968313571 128.02745515875696 41.91129044326448 H 0.0 **** 0.06
4611 C 7.697064900764019 73.1800685315888 101.23342473156208 C 0.0 **** -0.24
4612 H 6.889576091223461 73.15022903260893 100.5019889672028 H 0.0 **** 0.06
4613 H 7.304019928111188 73.51327733610026 102.19457895177197 H 0.0 **** 0.06
4614 H 8.467049459564038 73.87375273010144 100.89484108416968 H 0.0 **** 0.06
4615 H 8.126452638708486 72.1848708963401 101.34119134054157 H 0.0 **** 0.06
4616 C 90.8933881161312 157.74586553511767 47.14239284010171 C 0.0 **** -0.24
4617 H 90.35461068403731 157.45878543370185 48.045255367035395 H 0.0 **** 0.06
4618 H 91.04297434650209 158.8260737934013 47.138396751712264 H 0.0 **** 0.06
4619 H 90.31422582428485 157.4550974310315 46.26708104067524 H 0.0 **** 0.06
4620 H 91.86089581326728 157.2445157677418 47.12153342331453 H 0.0 **** 0.06
4621 C 97.85533740859844 9.613285616336384 3.9038728539522225 C 0.0 **** -0.24
4622 H 97.21108072822307 9.114205471011758 3.180200838052059 H 0.0 **** 0.06
4623 H 98.85365297629775 9.175426897593184 3.8641906067004683 H 0.0 **** 0.06
4624 H 97.44232697987908 9.488678547266261 4.905064809430677 H 0.0 **** 0.06
4625 H 97.91446587101163 10.675418929569389 3.6647608995106893 H 0.0 **** 0.06
4626 C 94.75816756115067 13.787507593177196 130.13497609191873 C 0.0 **** -0.24
4627 H 95.16690392172394 12.77724467141303 130.1128791496667 H 0.0 **** 0.06
4628 H 94.68258565399852 14.12567090926288 131.16964409587177 H 0.0 **** 0.06
4629 H 93.76830034333778 13.790104964418674 129.67881494125095 H 0.0 **** 0.06
4630 H 95.41611362024261 14.457462291033579 129.5803757145099 H 0.0 **** 0.06
4631 C 22.839945709110467 162.72328666058752 140.86925492079357 C 0.0 **** -0.24
4632 H 23.12637942264014 163.71242002470262 141.22873902142388 H 0.0 **** 0.06
4633 H 21.756069965092998 162.61920927116233 140.9205201996371 H 0.0 **** 0.06
4634 H 23.30879591694424 161.96113952598205 141.4910813123536 H 0.0 **** 0.06
4635 H 23.168389369767944 162.60325155641493 139.83752765524147 H 0.0 **** 0.06
4636 C 120.23620368891284 85.91783625926166 160.7877085988332 C 0.0 **** -0.24
4637 H 121.1246882187557 85.28987994798604 160.854063465372 H 0.0 **** 0.06
4638 H 120.45281871963712 86.8990370938784 161.20909758857476 H 0.0 **** 0.06
4639 H 119.42153363250631 85.45484901437527 161.3438249016532 H 0.0 **** 0.06
4640 H 119.94625073214178 86.02623930080279 159.74285937420797 H 0.0 **** 0.06
4641 C 151.09898327841856 2.108620106502599 51.70963488040036 C 0.0 **** -0.24
4642 H 150.7108357549162 3.0734476662461816 51.38074099972192 H 0.0 **** 0.06
4643 H 150.84137279517915 1.9524311178091978 52.75716229948239 H 0.0 **** 0.06
4644 H 152.1824539931906 2.0962446208914116 51.5957538847851 H 0.0 **** 0.06
4645 H 150.6604120420664 1.3159040149317036 51.104056392008374 H 0.0 **** 0.06
4646 C 108.37179632060125 87.60248569042153 23.093869107503025 C 0.0 **** -0.24
4647 H 108.4055230342166 87.37093211937761 22.029195301144142 H 0.0 **** 0.06
4648 H 108.93225523703236 86.8496409108685 23.64776204324619 H 0.0 **** 0.06
4649 H 107.33462887623045 87.60588780935377 23.43148134417723 H 0.0 **** 0.06
4650 H 108.81235342607388 88.58465241010353 23.265714481678998 H 0.0 **** 0.06
4651 C 136.5539347876637 78.13338468812627 132.73607766321692 C 0.0 **** -0.24
4652 H 137.04111544800583 79.04341854274605 132.38495195285435 H 0.0 **** 0.06
4653 H 135.5330810897154 78.09792027574343 132.3539351519631 H 0.0 **** 0.06
4654 H 136.53441814977361 78.13014134917464 133.82633747920036 H 0.0 **** 0.06
4655 H 137.10576938699262 77.26489500555829 132.3794307250485 H 0.0 **** 0.06
4656 C 90.8848694119053 59.30864137312955 134.69826036076432 C 0.0 **** -0.24
4657 H 91.04548668151892 59.12193135638559 135.75989226813547 H 0.0 **** 0.06
4658 H 90.19977525620281 60.14831295612527 134.5765742076119 H 0.0 **** 0.06
4659 H 90.45689450225328 58.41940181831514 134.23360522151825 H 0.0 **** 0.06
4660 H 91.83680310199472 59.54414800156832 134.22190361706913 H 0.0 **** 0.06
4661 C 37.341911566100464 121.99128048482999 43.05181251031222 C 0.0 **** -0.24
4662 H 38.12949431708951 122.73646152878166 43.15964780628188 H 0.0 **** 0.06
4663 H 37.32049447606761 121.3548610454095 43.93735274576299 H 0.0 **** 0.06
4664 H 37.53734814514509 121.38140356724085 42.17044339904001 H 0.0 **** 0.06
4665 H 36.3808021771397 122.49276628941436 42.94195550514996 H 0.0 **** 0.06
4666 C 134.77802841648148 158.15463674075914 153.5299046968844 C 0.0 **** -0.24
4667 H 134.2502826630048 159.05397395112 153.21296487965304 H 0.0 **** 0.06
4668 H 134.62467187457025 157.36451586071712 152.79392938267296 H 0.0 **** 0.06
4669 H 134.3937236384407 157.82955987049235 154.4968088942744 H 0.0 **** 0.06
4670 H 135.8433223896245 158.36939507347668 153.61503676353743 H 0.0 **** 0.06
4671 C 122.92008752266884 107.24731995431418 67.85961396674111 C 0.0 **** -0.24
4672 H 123.82237218932559 106.69192483076151 68.11240527226244 H 0.0 **** 0.06
4673 H 122.5356116971534 107.74151273432938 68.75187945089272 H 0.0 **** 0.06
4674 H 122.16817218807935 106.56101013194049 67.470398079691 H 0.0 **** 0.06
4675 H 123.15457894608681 107.99609425786838 67.10196779727141 H 0.0 **** 0.06
4676 C 115.63064894539934 139.48628152756544 46.01065975806746 C 0.0 **** -0.24
4677 H 115.11694863896844 140.3889601389733 46.33914892213717 H 0.0 **** 0.06
4678 H 115.57186088666177 139.40943151908658 44.925072871184895 H 0.0 **** 0.06
4679 H 115.15879120865003 138.6141925982161 46.46283784019187 H 0.0 **** 0.06
4680 H 116.67639972440335 139.531678890075 46.31611068597823 H 0.0 **** 0.06
4681 C 90.61540297380729 17.729813161621138 108.15559126631399 C 0.0 **** -0.24
4682 H 90.85607087922251 16.976754682283342 108.9060069798395 H 0.0 **** 0.06
4683 H 90.6125676154734 17.269702759185975 107.16663460204694 H 0.0 **** 0.06
4684 H 91.36140780890084 18.52369411471645 108.18576843520276 H 0.0 **** 0.06
4685 H 89.63093827002129 18.148269828679958 108.36491188257116 H 0.0 **** 0.06
4686 C 4.617194890581459 159.18134807622755 45.146800697283666 C 0.0 **** -0.24
4687 H 4.249546643208646 159.5370093040699 44.18452802343498 H 0.0 **** 0.06
4688 H 5.63353333854343 159.54419285373643 45.303691474950725 H 0.0 **** 0.06
4689 H 4.614920274504243 158.09066643198935 45.15570464550758 H 0.0 **** 0.06
4690 H 3.971446783972681 159.5515867975356 45.942382556829145 H 0.0 **** 0.06
4691 C 113.66498106797644 145.14344135511436 126.65456852846202 C 0.0 **** -0.24
4692 H 113.90801122640858 146.1771499639575 126.40802701271312 H 0.0 **** 0.06
4693 H 113.9114969554029 144.5012900238707 125.80885850219332 H 0.0 **** 0.06
4694 H 112.60110345160749 145.06295673578245 126.87506674627235 H 0.0 **** 0.06
4695 H 114.24140180575156 144.83307721128097 127.52668728164713 H 0.0 **** 0.06
4696 C 150.16355338543224 156.4630565445218 37.6587511055434 C 0.0 **** -0.24
4697 H 150.06576530524404 157.53936379012714 37.802490721513436 H 0.0 **** 0.06
4698 H 150.3678158035463 155.98640054848812 38.61791470292724 H 0.0 **** 0.06
4699 H 150.98324774838233 156.26199874544807 36.96992476347023 H 0.0 **** 0.06
4700 H 149.23537297844393 156.06686073919593 37.24577180800834 H 0.0 **** 0.06
4701 C 97.88452578439797 143.53667595128934 108.33017905561286 C 0.0 **** -0.24
4702 H 98.97391368397686 143.51059604100627 108.35668754194222 H 0.0 **** 0.06
4703 H 97.51365479966304 142.6518335141315 107.81233888092271 H 0.0 **** 0.06
4704 H 97.55467730568671 144.43177287248264 107.80200923006907 H 0.0 **** 0.06
4705 H 97.49685197527322 143.5513923576091 109.34879689397997 H 0.0 **** 0.06
4706 C 65.52506195782654 158.27475458931826 88.87566895840115 C 0.0 **** -0.24
4707 H 66.26172709958 158.29772705466212 88.07277756930068 H 0.0 **** 0.06
4708 H 65.34107930750466 159.29004536975052 89.2280790806507 H 0.0 **** 0.06
4709 H 65.90306411558353 157.66658746116994 89.6976354889359 H 0.0 **** 0.06
4710 H 64.59537458538306 157.84473798868788 88.50318410655191 H 0.0 **** 0.06
4711 C 89.94567793310486 143.01046726838518 1.7099651782319256 C 0.0 **** -0.24
4712 H 89.7145164006285 143.0359071806101 0.645331910240543 H 0.0 **** 0.06
4713 H 90.63429055402958 142.190819086344 1.9134826261258695 H 0.0 **** 0.06
4714 H 89.02656252401869 142.86255343645783 2.2774114183738448 H 0.0 **** 0.06
4715 H 90.40576584429866 143.95428940353096 2.004425328092367 H 0.0 **** 0.06
4716 C 106.48732068928871 115.94005095965875 11.871746405370402 C 0.0 **** -0.24
4717 H 106.74660477870106 114.91268355622279 11.617121547093348 H 0.0 **** 0.06
4718 H 105.51664439330824 116.18757552520137 11.440980805442166 H 0.0 **** 0.06
4719 H 107.24549283438586 116.61490533036283 11.47301282634345 H 0.0 **** 0.06
4720 H 106.44119237973993 116.04529074246156 12.955154725958351 H 0.0 **** 0.06
4721 C 123.50205053241865 112.7047005123419 23.661531704649512 C 0.0 **** -0.24
4722 H 123.75617576289807 112.59924068552527 24.71583356961333 H 0.0 **** 0.06
4723 H 122.42671500169749 112.57553056234326 23.53223543250671 H 0.0 **** 0.06
4724 H 124.03160355600664 111.94876888364215 23.082817799850396 H 0.0 **** 0.06
4725 H 123.79232956378507 113.697277936359 23.315430517037974 H 0.0 **** 0.06
4726 C 18.54073207579691 44.14604660827635 3.330425447124661 C 0.0 **** -0.24
4727 H 18.448982230569243 43.25658531206267 3.9528717428388376 H 0.0 **** 0.06
4728 H 19.30078489410377 44.80556673457524 3.749880792801207 H 0.0 **** 0.06
4729 H 17.584271907506206 44.66837543398644 3.2994994833761737 H 0.0 **** 0.06
4730 H 18.828892026883352 43.854779573521796 2.320312475253992 H 0.0 **** 0.06
4731 C 113.16026826154962 49.38857868422872 9.272675674137147 C 0.0 **** -0.24
4732 H 112.94353117630916 48.52133299230616 8.6495362192601 H 0.0 **** 0.06
4733 H 112.2513827578033 49.70377024043296 9.785203995243563 H 0.0 **** 0.06
4734 H 113.52687599608896 50.202374136073104 8.647077092377032 H 0.0 **** 0.06
4735 H 113.92025686866157 49.12541884331381 10.00908459738153 H 0.0 **** 0.06
4736 C 16.959387060845756 132.23219291429137 114.97355430903195 C 0.0 **** -0.24
4737 H 16.227412040843006 131.5355215684559 114.56470290840176 H 0.0 **** 0.06
4738 H 16.442652541684055 133.0924211442849 115.40139276430267 H 0.0 **** 0.06
4739 H 17.625732325310707 132.5667166489626 114.1784922273838 H 0.0 **** 0.06
4740 H 17.540350898202945 131.73395918078796 115.74975339855453 H 0.0 **** 0.06
4741 C 46.81531006746765 83.31277779194843 141.26421227466574 C 0.0 **** -0.24
4742 H 45.98492015562945 82.65158715688482 141.5097939555712 H 0.0 **** 0.06
4743 H 46.612054567623574 84.31121579391208 141.65169468835353 H 0.0 **** 0.06
4744 H 46.93454347888685 83.36038153978072 140.1821747946658 H 0.0 **** 0.06
4745 H 47.731306090313225 82.9288967915006 141.71443061052688 H 0.0 **** 0.06
4746 C 46.35151589759634 38.65695282105892 64.1821006720188 C 0.0 **** -0.24
4747 H 45.380164232138966 38.171260223394626 64.08618657425868 H 0.0 **** 0.06
4748 H 46.82891319597981 38.712772902729625 63.20368266286465 H 0.0 **** 0.06
4749 H 46.98024990322554 38.08056460771262 64.86128772681246 H 0.0 **** 0.06
4750 H 46.21667442228306 39.66290817992687 64.57946001318771 H 0.0 **** 0.06
4751 C 76.7485417560722 146.50265964994037 92.54700380977286 C 0.0 **** -0.24
4752 H 76.44728321949248 145.48945332921016 92.28296201330691 H 0.0 **** 0.06
4753 H 76.40882646609394 147.19479715075107 91.77693625533388 H 0.0 **** 0.06
4754 H 77.83561386022703 146.55043601083352 92.62452524829895 H 0.0 **** 0.06
4755 H 76.3042762558405 146.77554185239924 93.50427928116706 H 0.0 **** 0.06
4756 C 71.5010422271227 125.25369403134462 101.09610675046372 C 0.0 **** -0.24
4757 H 72.55106054992729 125.54922183974344 101.10077004423329 H 0.0 **** 0.06
4758 H 71.08623523997943 125.40113231088546 100.09956977852909 H 0.0 **** 0.06
4759 H 70.95027552688683 125.86212623035101 101.814390258667 H 0.0 **** 0.06
4760 H 71.41866401540344 124.20269379029838 101.37262469173993 H 0.0 **** 0.06
4761 C 156.82219106073362 21.60156081094373 47.971115196152354 C 0.0 **** -0.24
4762 H 155.7690372044512 21.745256777590043 47.730914735634144 H 0.0 **** 0.06
4763 H 156.9972543436406 21.869835432293534 49.013075577544825 H 0.0 **** 0.06
4764 H 157.43146081016883 22.234774050310996 47.32604293090226 H 0.0 **** 0.06
4765 H 157.09090755176436 20.557775896678017 47.81424804916499 H 0.0 **** 0.06
4766 C 89.74301741217519 38.82332837273269 131.94603991532819 C 0.0 **** -0.24
4767 H 90.31759022772744 38.70967996345895 131.02605349449126 H 0.0 **** 0.06
4768 H 89.98154753271967 39.78100164776596 132.4074530714244 H 0.0 **** 0.06
4769 H 89.99480206323773 38.01501421848012 132.63238499284017 H 0.0 **** 0.06
4770 H 88.678316268998 38.785761563458465 131.71614198375505 H 0.0 **** 0.06
4771 C 108.6726236869356 56.62660568281228 150.3525448960063 C 0.0 **** -0.24
4772 H 109.53939101243208 56.28840094219471 149.78543221926915 H 0.0 **** 0.06
4773 H 107.8762561555628 55.88628381405155 150.27267526311937 H 0.0 **** 0.06
4774 H 108.32601037217273 57.57875964874228 149.95252008361496 H 0.0 **** 0.06
4775 H 108.95012047514146 56.75098906952093 151.3989225237366 H 0.0 **** 0.06
4776 C 34.83888134257751 96.5741910049725 145.69163507151515 C 0.0 **** -0.24
4777 H 35.551315853359625 97.23030920623114 145.19146326756743 H 0.0 **** 0.06
4778 H 35.29152934204956 96.16889616063408 146.5976371635245 H 0.0 **** 0.06
4779 H 34.567203618602036 95.75594257467812 145.02453569036496 H 0.0 **** 0.06
4780 H 33.944901056091226 97.14081418730387 145.954327491975 H 0.0 **** 0.06
4781 C 145.97120279395563 5.201877504376256 146.90322465654023 C 0.0 **** -0.24
4782 H 146.06989035472765 4.981168711718624 145.83962402742318 H 0.0 **** 0.06
4783 H 144.96356600913793 5.564366850840713 147.1057744752721 H 0.0 **** 0.06
4784 H 146.69644692115602 5.965203046474471 147.18371512881967 H 0.0 **** 0.06
4785 H 146.15466487458482 4.29509015426126 147.47989720984734 H 0.0 **** 0.06
4786 C 161.9257982807311 47.55596649558058 107.68650688854862 C 0.0 **** -0.24
4787 H 162.90107077598418 47.984492451317436 107.91989274096747 H 0.0 **** 0.06
4788 H 161.73309773850025 46.71073100262193 108.34835911051809 H 0.0 **** 0.06
4789 H 161.91735413870128 47.215506987564794 106.65077627952078 H 0.0 **** 0.06
4790 H 161.15352314821263 48.3124015477529 107.82716959184549 H 0.0 **** 0.06
4791 C 157.66566045760248 49.44291993464367 20.208753580393875 C 0.0 **** -0.24
4792 H 157.99131092156645 50.48356236712131 20.22201973679563 H 0.0 **** 0.06
4793 H 158.46663807123318 48.807172402394414 20.588229328096816 H 0.0 **** 0.06
4794 H 157.4236527085477 49.15090332161934 19.186743594935223 H 0.0 **** 0.06
4795 H 156.78302699168103 49.330229279866586 20.83815315976318 H 0.0 **** 0.06
4796 C 21.99195819113875 52.35356550413181 12.208472757198592 C 0.0 **** -0.24
4797 H 22.78512491808504 52.84851396502191 11.648385790148865 H 0.0 **** 0.06
4798 H 22.043426272682595 51.27763473337963 12.038008959837384 H 0.0 **** 0.06
4799 H 21.024660820952953 52.72821214246238 11.876309397910973 H 0.0 **** 0.06
4800 H 22.11636345044368 52.5585380659501 13.271511053463598 H 0.0 **** 0.06
4801 C 92.29122828869689 54.62274412396896 29.945350290186582 C 0.0 **** -0.24
4802 H 92.95507479132556 53.85442087068482 30.340607205778383 H 0.0 **** 0.06
4803 H 92.4333874000796 54.70654487484188 28.86759377877246 H 0.0 **** 0.06
4804 H 92.51967605357771 55.57857766252481 30.417235586269044 H 0.0 **** 0.06
4805 H 91.2567289659404 54.35243087736171 30.156012915701922 H 0.0 **** 0.06
4806 C 108.77575366070712 139.35005019873566 105.2311682031575 C 0.0 **** -0.24
4807 H 108.26499250879323 140.28903739570129 105.01426271359489 H 0.0 **** 0.06
4808 H 108.04054924164816 138.54991226819567 105.32315539566108 H 0.0 **** 0.06
4809 H 109.32823230951331 139.44596142402463 106.16580889981262 H 0.0 **** 0.06
4810 H 109.46740857104302 139.11835507087991 104.42194346751205 H 0.0 **** 0.06
4811 C 159.4845985255258 112.37961432381181 149.38041916194007 C 0.0 **** -0.24
4812 H 158.59760873164024 111.7511263467689 149.4528953023267 H 0.0 **** 0.06
4813 H 160.2103949098038 111.9100076126283 148.71633632993243 H 0.0 **** 0.06
4814 H 159.92440523498263 112.50305482706244 150.36975142997443 H 0.0 **** 0.06
4815 H 159.20706774351225 113.35558230250135 148.98237391107884 H 0.0 **** 0.06
4816 C 160.06397492441968 100.2911198839476 12.746752462359552 C 0.0 **** -0.24
4817 H 160.3639747834257 100.17033813268733 11.705379936547274 H 0.0 **** 0.06
4818 H 159.10490419467786 99.79798655732267 12.907453225120946 H 0.0 **** 0.06
4819 H 159.96957119635297 101.35277441907758 12.976586016300928 H 0.0 **** 0.06
4820 H 160.81648040351521 99.84379736887985 13.395619094152607 H 0.0 **** 0.06
4821 C 121.82893657213282 20.701184288565855 113.27289008055749 C 0.0 **** -0.24
4822 H 122.15045095307397 21.176474054143 112.3457557752609 H 0.0 **** 0.06
4823 H 121.37251909414331 21.446850042368 113.92493422581211 H 0.0 **** 0.06
4824 H 122.69174815782762 20.26100097880976 113.77283775665904 H 0.0 **** 0.06
4825 H 121.10194268216819 19.920010951100892 113.04798122362322 H 0.0 **** 0.06
4826 C 47.54674944665945 143.23934682280228 43.41471933657519 C 0.0 **** -0.24
4827 H 46.609984111733766 143.33050625669154 42.86437350035614 H 0.0 **** 0.06
4828 H 48.09860390563877 144.17798718936908 43.348327835275455 H 0.0 **** 0.06
4829 H 48.143810252002226 142.4349158110736 42.985797453496744 H 0.0 **** 0.06
4830 H 47.333797338607596 143.01628026826185 44.46014105299575 H 0.0 **** 0.06
4831 C 2.3432938407164556 71.62504606408618 123.902976069673 C 0.0 **** -0.24
4832 H 2.818210878494142 71.79211103774259 124.86994244403232 H 0.0 **** 0.06
4833 H 2.1592776177245696 72.58414363070085 123.41869541964107 H 0.0 **** 0.06
4834 H 1.3974729447744494 71.10306937269655 124.0484718616467 H 0.0 **** 0.06
4835 H 2.999400800606338 71.02103868106096 123.2760433765578 H 0.0 **** 0.06
4836 C 66.00318241653895 149.12353448568493 136.68504117939122 C 0.0 **** -0.24
4837 H 66.22166045207987 149.4097725041654 135.65659381635396 H 0.0 **** 0.06
4838 H 65.02349728666283 148.64611352782438 136.72755204880747 H 0.0 **** 0.06
4839 H 66.002771656591 150.01172545258908 137.31705818892095 H 0.0 **** 0.06
4840 H 66.76311539491718 148.426705391201 137.03789797967602 H 0.0 **** 0.06
4841 C 76.63276403944582 42.30712468158595 157.8462995239688 C 0.0 **** -0.24
4842 H 76.79364988761445 42.590535448495444 158.8867397940797 H 0.0 **** 0.06
4843 H 76.29581084873556 43.17717616944563 157.28150411457983 H 0.0 **** 0.06
4844 H 75.87632965857715 41.524756338053294 157.79645357711706 H 0.0 **** 0.06
4845 H 77.56749705245988 41.937876704288726 157.42264869457932 H 0.0 **** 0.06
4846 C 63.179069968414865 54.2102278935305 113.81681785242668 C 0.0 **** -0.24
4847 H 62.37035198738428 54.58906833069187 114.44217616715576 H 0.0 **** 0.06
4848 H 63.278879470480675 54.83779584425338 112.93151204629766 H 0.0 **** 0.06
4849 H 62.95416820007871 53.18714388555594 113.5140387432914 H 0.0 **** 0.06
4850 H 64.11184102120113 54.22570395158412 114.38111965979974 H 0.0 **** 0.06
4851 C 103.25755143757505 68.59814311298864 136.35840560694325 C 0.0 **** -0.24
4852 H 103.31707833457475 69.61260135435313 136.75189113754166 H 0.0 **** 0.06
4853 H 104.15528782285307 68.04635956253328 136.6400067432503 H 0.0 **** 0.06
4854 H 103.17797720912066 68.63400758989849 135.27162064384765 H 0.0 **** 0.06
4855 H 102.37986238375194 68.09960394516943 136.77010390313333 H 0.0 **** 0.06
4856 C 20.413907882641702 146.64519149985878 144.57887321018535 C 0.0 **** -0.24
4857 H 19.70951043891506 145.91419923059902 144.97806671356744 H 0.0 **** 0.06
4858 H 20.0640083187481 147.65062227156204 144.81144168071148 H 0.0 **** 0.06
4859 H 20.48690061753873 146.52538116909548 143.4979576723399 H 0.0 **** 0.06
4860 H 21.393778127734222 146.48725107156645 145.02901315306104 H 0.0 **** 0.06
4861 C 59.20157658526112 11.453963823319128 120.0180218435483 C 0.0 **** -0.24
4862 H 59.850105731414715 10.935123955805238 119.31170958167928 H 0.0 **** 0.06
4863 H 58.67157977144748 12.255316392899857 119.50223281436905 H 0.0 **** 0.06
4864 H 59.80303428311788 11.874287283340294 120.82262523241153 H 0.0 **** 0.06
4865 H 58.48029510589342 10.748947911809921 120.43211660090239 H 0.0 **** 0.06
4866 C 112.15194220887398 79.64529935999865 121.19722437551889 C 0.0 **** -0.24
4867 H 111.15299012210906 79.30262756427273 120.9258212594176 H 0.0 **** 0.06
4868 H 112.29759368771838 80.6630337904316 120.83322413687875 H 0.0 **** 0.06
4869 H 112.89599518294227 78.98816176444844 120.74900996806957 H 0.0 **** 0.06
4870 H 112.2582778151718 79.62928326125082 122.28221197878014 H 0.0 **** 0.06
4871 C 109.25910880208252 149.5720458323628 73.66385532044202 C 0.0 **** -0.24
4872 H 108.9148031759872 150.60600255936734 73.64846146409272 H 0.0 **** 0.06
4873 H 108.87441138987504 149.0746786789777 74.55468510052552 H 0.0 **** 0.06
4874 H 110.34878023435931 149.55155963617614 73.67899927173517 H 0.0 **** 0.06
4875 H 108.89803568721885 149.0555921461903 72.77458446991736 H 0.0 **** 0.06
4876 C 31.7455038821371 24.683725994172107 50.0866522990671 C 0.0 **** -0.24
4877 H 32.58871570971921 25.16541101501906 49.592460853611215 H 0.0 **** 0.06
4878 H 32.10717838629707 24.090637251332538 50.92727836673666 H 0.0 **** 0.06
4879 H 31.231503366792445 24.033871307746978 49.37809162653589 H 0.0 **** 0.06
4880 H 31.054618065739632 25.44498440258974 50.44877834938461 H 0.0 **** 0.06
4881 C 89.29171832629378 47.520291356829446 147.66686014440631 C 0.0 **** -0.24
4882 H 88.99848539541169 46.87077565324047 146.84238598458842 H 0.0 **** 0.06
4883 H 89.52008383337072 46.91358910552438 148.54396987148675 H 0.0 **** 0.06
4884 H 88.47357122999995 48.20276514813875 147.8999883293356 H 0.0 **** 0.06
4885 H 90.1735258476877 48.093305118544535 147.3811950207849 H 0.0 **** 0.06
4886 C 162.787286825083 86.34914404017385 147.36819970207802 C 0.0 **** -0.24
4887 H 163.29277470801324 86.37043796925725 146.40202918628535 H 0.0 **** 0.06
4888 H 163.26771914520108 85.6131141562476 148.0127170775657 H 0.0 **** 0.06
4889 H 161.74144468276046 86.08006590709599 147.22383559578213 H 0.0 **** 0.06
4890 H 162.8490667835737 87.33396364484886 147.8318638650747 H 0.0 **** 0.06
4891 C 153.42366044249695 52.240601329068966 66.59542384814293 C 0.0 **** -0.24
4892 H 154.06255998340134 52.366010850022235 67.47004188361554 H 0.0 **** 0.06
4893 H 153.9907162647018 52.478533717722485 65.6950140786627 H 0.0 **** 0.06
4894 H 152.5660517331719 52.90912153491422 66.67360891532714 H 0.0 **** 0.06
4895 H 153.07640280230225 51.20898064958976 66.5449685317291 H 0.0 **** 0.06
4896 C 155.07773179153338 161.15926372439353 24.473039068917615 C 0.0 **** -0.24
4897 H 154.00796079729753 160.96879533113386 24.39291019153984 H 0.0 **** 0.06
4898 H 155.47798381879863 160.62970480778426 25.337985624767953 H 0.0 **** 0.06
4899 H 155.2482090530901 162.22995534509178 24.591790305148095 H 0.0 **** 0.06
4900 H 155.57819938985625 160.8100825204482 23.57034615323434 H 0.0 **** 0.06
4901 C 70.04843046451643 100.23151347165899 7.920097683096515 C 0.0 **** -0.24
4902 H 71.0135563190513 100.32898667702094 8.418712724817055 H 0.0 **** 0.06
4903 H 70.06917980887818 100.78056320691192 6.978520963217306 H 0.0 **** 0.06
4904 H 69.26626619343267 100.63833902642804 8.560666853668579 H 0.0 **** 0.06
4905 H 69.84662393338652 99.17849022197757 7.723616085619369 H 0.0 **** 0.06
4906 C 0.10476481183180297 120.90362556630555 98.6684880268829 C 0.0 **** -0.24
4907 H 0.254921092679524 121.9557080298269 98.4259257833873 H 0.0 **** 0.06
4908 H -0.958958011142844 120.66813847413351 98.61709263339884 H 0.0 **** 0.06
4909 H 0.47241081755354486 120.70697624457034 99.6757552825274 H 0.0 **** 0.06
4910 H 0.6483208116876611 120.28430144670062 97.95532791089462 H 0.0 **** 0.06
4911 C 64.29202961988244 39.769968917516564 119.27573558763032 C 0.0 **** -0.24
4912 H 64.95449093188842 40.299459810670456 118.59056898221786 H 0.0 **** 0.06
4913 H 64.83859017905309 39.513244869663424 120.1831705293566 H 0.0 **** 0.06
4914 H 63.92898821032463 38.85943622138818 118.79923585556028 H 0.0 **** 0.06
4915 H 63.44619623821512 40.409076535088346 119.52954497645294 H 0.0 **** 0.06
4916 C 44.5612927874823 2.5424562732526113 49.03692559511012 C 0.0 **** -0.24
4917 H 43.84539652615264 3.2905069706641825 48.69543830238541 H 0.0 **** 0.06
4918 H 45.57035976168598 2.8590787973240595 48.7742873364881 H 0.0 **** 0.06
4919 H 44.343171151711516 1.586665573925501 48.55885656861108 H 0.0 **** 0.06
4920 H 44.48409189047193 2.4324742671725517 50.11871894076768 H 0.0 **** 0.06
4921 C 31.742567761226837 118.52451580672454 22.896910504171558 C 0.0 **** -0.24
4922 H 32.29613035010465 117.64256762327051 22.57438186445387 H 0.0 **** 0.06
4923 H 30.82424514327505 118.6100843410797 22.315169599535807 H 0.0 **** 0.06
4924 H 32.35453503673918 119.41333349408902 22.74408373677366 H 0.0 **** 0.06
4925 H 31.49569577268005 118.43116420435652 23.954237104779622 H 0.0 **** 0.06
4926 C 115.81200452269715 129.75372825095826 104.54454766689739 C 0.0 **** -0.24
4927 H 114.81303966438816 129.6142473060978 104.9581140381971 H 0.0 **** 0.06
4928 H 116.50074039676721 130.027728888841 105.34491224626183 H 0.0 **** 0.06
4929 H 115.78860323883035 130.54677393315092 103.79803327249243 H 0.0 **** 0.06
4930 H 116.1449137128482 128.82628551504274 104.07946888463616 H 0.0 **** 0.06
4931 C 10.310559947699574 17.700272551216948 40.237907099452414 C 0.0 **** -0.24
4932 H 10.626224592641762 18.674366116417566 39.866063888048686 H 0.0 **** 0.06
4933 H 9.936031623787471 17.0986914334497 39.40877888548533 H 0.0 **** 0.06
4934 H 9.52087140290638 17.8320038838429 40.97736886584394 H 0.0 **** 0.06
4935 H 11.159370963769163 17.195063883104467 40.69946201069045 H 0.0 **** 0.06
4936 C 118.33773920660258 98.21883711052274 12.277878575432553 C 0.0 **** -0.24
4937 H 118.12082734149419 99.22485426811187 11.917328151812512 H 0.0 **** 0.06
4938 H 119.34950204627748 97.93890368294669 11.986293156563683 H 0.0 **** 0.06
4939 H 117.62616657225868 97.51684907469911 11.842967038896582 H 0.0 **** 0.06
4940 H 118.25200831658151 98.19648634500737 13.363956147667338 H 0.0 **** 0.06
4941 C 112.45361910355953 86.95213257188988 120.71114137829588 C 0.0 **** -0.24
4942 H 112.40095893277268 85.88102848093841 120.51581142323553 H 0.0 **** 0.06
4943 H 111.60879083602813 87.24882560916117 121.33415690818086 H 0.0 **** 0.06
4944 H 112.41733658808303 87.49595177564066 119.76669649548492 H 0.0 **** 0.06
4945 H 113.38538171486394 87.18176667154822 121.22767836723204 H 0.0 **** 0.06
4946 C 107.87699013597725 153.9415414935136 68.6638043318932 C 0.0 **** -0.24
4947 H 107.9213752233309 154.22367433755815 69.71642340958239 H 0.0 **** 0.06
4948 H 108.61433416052571 154.5160044245107 68.10266887587345 H 0.0 **** 0.06
4949 H 106.88048465871273 154.15066601495673 68.27436160970107 H 0.0 **** 0.06
4950 H 108.09171870581707 152.87820773586017 68.56358068848377 H 0.0 **** 0.06
4951 C 108.1033974214115 51.14943685484593 144.0384488028364 C 0.0 **** -0.24
4952 H 107.46975759083548 51.43929768500911 144.8767775727954 H 0.0 **** 0.06
4953 H 108.43584359589951 52.04216443438162 143.50949337862335 H 0.0 **** 0.06
4954 H 107.53628952023385 50.51434214821255 143.35749637090316 H 0.0 **** 0.06
4955 H 108.96926258206813 50.60170313515046 144.41010878809914 H 0.0 **** 0.06
4956 C 0.08326348130322003 54.177972405385304 10.887570696204989 C 0.0 **** -0.24
4957 H 0.21199777678432952 53.98611990126659 9.822299859214354 H 0.0 **** 0.06
4958 H -0.9713268020312569 54.08417493260731 11.148575013930156 H 0.0 **** 0.06
4959 H 0.4264060819899669 55.18553013931293 11.11923074571996 H 0.0 **** 0.06
4960 H 0.6651774147650826 53.45462464716212 11.459042533388896 H 0.0 **** 0.06
4961 C 93.95305485999143 63.907489355287936 104.68463854906517 C 0.0 **** -0.24
4962 H 94.37650352496735 64.35849252476498 105.58238252253409 H 0.0 **** 0.06
4963 H 94.70676502036228 63.2863058294912 104.20052194759467 H 0.0 **** 0.06
4964 H 93.63394999009185 64.69235138294158 103.99974987238323 H 0.0 **** 0.06
4965 H 93.09596108465016 63.29239024871197 104.95727966986789 H 0.0 **** 0.06
4966 C 156.30237944074256 125.88201043868224 71.99023992045113 C 0.0 **** -0.24
4967 H 155.33209705630117 125.80534705274562 71.4998200313766 H 0.0 **** 0.06
4968 H 156.64861360378816 124.88588039639103 72.26675341832252 H 0.0 **** 0.06
4969 H 156.20995697069202 126.49685822886943 72.88515171390446 H 0.0 **** 0.06
4970 H 157.01846891953014 126.34003150063313 71.30703244212535 H 0.0 **** 0.06
4971 C 13.779785017046741 143.9989141956297 115.99416803081061 C 0.0 **** -0.24
4972 H 14.588555166797839 143.3140584582513 115.74293056531792 H 0.0 **** 0.06
4973 H 12.94869872377118 143.43876298176744 116.42437041373785 H 0.0 **** 0.06
4974 H 13.443822002795109 144.51141437826047 115.09204702483595 H 0.0 **** 0.06
4975 H 14.136266702087816 144.7327507472365 116.71735444834246 H 0.0 **** 0.06
4976 C 150.54812662768984 23.4385323640049 125.84963424849445 C 0.0 **** -0.24
4977 H 151.38013968459973 24.00165396753296 126.27389622691601 H 0.0 **** 0.06
4978 H 149.95245430451223 23.009187450330145 126.65456048935368 H 0.0 **** 0.06
4979 H 150.93662169944832 22.63942916493886 125.21707550946388 H 0.0 **** 0.06
4980 H 149.92652800460013 24.104850946477058 125.25176507752042 H 0.0 **** 0.06
4981 C 89.81582128476231 88.3812020075805 50.88289104084633 C 0.0 **** -0.24
4982 H 90.78603144670546 88.36620904347672 51.37885907503001 H 0.0 **** 0.06
4983 H 89.15185561681585 89.07061592375186 51.405782945371115 H 0.0 **** 0.06
4984 H 89.38555713148588 87.3799271297566 50.89728641589551 H 0.0 **** 0.06
4985 H 89.94045409367902 88.70879415977993 49.85067453871794 H 0.0 **** 0.06
4986 C 127.32603438837046 126.62586986620539 51.30279313193077 C 0.0 **** -0.24
4987 H 127.22817170395487 126.72534368815909 52.384014997251114 H 0.0 **** 0.06
4988 H 126.78815544381314 125.73742667365806 50.970008172207116 H 0.0 **** 0.06
4989 H 128.3802330765967 126.53325737131055 51.040400435103635 H 0.0 **** 0.06
4990 H 126.90691361728119 127.50700870673927 50.81828622795483 H 0.0 **** 0.06
4991 C 93.11414062963877 29.549088308749106 155.53820352838153 C 0.0 **** -0.24
4992 H 94.0252465875152 29.748213602647013 156.10218659453037 H 0.0 **** 0.06
4993 H 92.31205301000125 30.1908115829072 155.90389269866904 H 0.0 **** 0.06
4994 H 92.83000794600673 28.503927242563464 155.66453186403922 H 0.0 **** 0.06
4995 H 93.289701691358 29.7521297375462 154.4811144169835 H 0.0 **** 0.06
4996 C 15.065753966078518 155.17974905511406 136.98337801177908 C 0.0 **** -0.24
4997 H 14.030023672487857 155.33446257494205 136.6817038018885 H 0.0 **** 0.06
4998 H 15.162988328673663 154.20648911758093 137.46513256442296 H 0.0 **** 0.06
4999 H 15.36149179713928 155.96157926572752 137.68241698852398 H 0.0 **** 0.06
5000 H 15.708512066013412 155.21646526220573 136.1042586922808 H 0.0 **** 0.06
5001 C 101.46131265086854 24.87436294375908 53.40943242812699 C 0.0 **** -0.24
5002 H 101.26400772582997 24.81468407056613 52.338813414155084 H 0.0 **** 0.06
5003 H 101.1622274470626 25.855896594374926 53.77905606254336 H 0.0 **** 0.06
5004 H 102.52586952476213 24.725565759202375 53.59186305644789 H 0.0 **** 0.06
5005 H 100.89233582597774 24.102364129330127 53.92752514204153 H 0.0 **** 0.06
5006 C 9.297205560475525 16.916967666870285 25.808736109531758 C 0.0 **** -0.24
5007 H 8.644000942647324 17.059646345811366 24.948224424558326 H 0.0 **** 0.06
5008 H 8.907877906907054 16.1092138459247 26.42912197617492 H 0.0 **** 0.06
5009 H 9.335852317403415 17.83782478965378 26.391881448699735 H 0.0 **** 0.06
5010 H 10.300175409927682 16.66157212990023 25.465827263622565 H 0.0 **** 0.06
5011 C 68.03884451839721 77.11656725909269 50.832924164171075 C 0.0 **** -0.24
5012 H 68.10176922070681 78.1208312434065 51.254227196309515 H 0.0 **** 0.06
5013 H 68.29693700576796 77.15034251770349 49.774684426994284 H 0.0 **** 0.06
5014 H 67.0242052749291 76.73738525684398 50.94891135796682 H 0.0 **** 0.06
5015 H 68.73421201329182 76.46087166797366 51.35586312772125 H 0.0 **** 0.06
5016 C 14.842857725718432 53.199839486057144 81.79519025677712 C 0.0 **** -0.24
5017 H 15.084073713616306 52.823263406747486 82.78952731112574 H 0.0 **** 0.06
5018 H 13.759979019700836 53.232698431160216 81.67224362034992 H 0.0 **** 0.06
5019 H 15.27433684915394 52.53944277382027 81.04305476266217 H 0.0 **** 0.06
5020 H 15.252978446579903 54.202404639310416 81.67783211376064 H 0.0 **** 0.06
5021 C 99.25735876606882 99.38942968999618 12.560469628120913 C 0.0 **** -0.24
5022 H 99.73172762862288 98.48922992695537 12.167086244962555 H 0.0 **** 0.06
5023 H 98.24857174726978 99.4740330568788 12.156265620757189 H 0.0 **** 0.06
5024 H 99.8405541934282 100.26345859777965 12.27136514291071 H 0.0 **** 0.06
5025 H 99.20919287764644 99.32736580913854 13.647824671419926 H 0.0 **** 0.06
5026 C 2.391263503709638 78.06387751397374 86.35014394657028 C 0.0 **** -0.24
5027 H 2.7848033077583523 78.97763985023059 85.90372855464324 H 0.0 **** 0.06
5028 H 3.209761111276862 77.49407063011704 86.79008898798588 H 0.0 **** 0.06
5029 H 1.9032655258745876 77.46523380141934 85.58099536855258 H 0.0 **** 0.06
5030 H 1.669017247257898 78.32110326484917 87.12423120344152 H 0.0 **** 0.06
5031 C 93.90836533661127 55.98003379493662 119.13963636438393 C 0.0 **** -0.24
5032 H 94.39449360161723 55.72380093572724 120.08047899698636 H 0.0 **** 0.06
5033 H 93.20002702751657 55.19672625147916 118.87106985826142 H 0.0 **** 0.06
5034 H 94.66098119571245 56.07355165919003 118.35565569823257 H 0.0 **** 0.06
5035 H 93.37931774938181 56.926993546473014 119.24953064718625 H 0.0 **** 0.06
5036 C 106.87389179577971 146.55439132526664 58.81689572068589 C 0.0 **** -0.24
5037 H 107.88412185099276 146.80106168465164 59.14300278106731 H 0.0 **** 0.06
5038 H 106.8323864462223 145.5054404811148 58.521630887684935 H 0.0 **** 0.06
5039 H 106.6030370901112 147.18232601845577 57.967913026230676 H 0.0 **** 0.06
5040 H 106.17580995211858 146.72963562148553 59.636107575658315 H 0.0 **** 0.06
5041 C 157.33061833511783 104.32404502610157 77.8358157182492 C 0.0 **** -0.24
5042 H 156.38107067675764 104.83110193065579 77.66763318740306 H 0.0 **** 0.06
5043 H 158.07273624493723 105.04639772908675 78.17411204155252 H 0.0 **** 0.06
5044 H 157.66683836976512 103.86487941822205 76.9068007270613 H 0.0 **** 0.06
5045 H 157.2005394964832 103.55287433476965 78.5954104337186 H 0.0 **** 0.06
5046 C 91.93985690959154 106.96720724929637 161.20661764068757 C 0.0 **** -0.24
5047 H 92.79340102358556 106.89673221510236 160.53273370669493 H 0.0 **** 0.06
5048 H 92.23712090287496 106.64275760722307 162.20467598257514 H 0.0 **** 0.06
5049 H 91.13493549439696 106.32841407516582 160.8414345516464 H 0.0 **** 0.06
5050 H 91.59427615818208 107.99970331694132 161.2488153288776 H 0.0 **** 0.06
5051 C 10.242806853147442 72.40205157455864 143.34899738814528 C 0.0 **** -0.24
5052 H 10.596678496456036 73.10222617119967 144.10610455866555 H 0.0 **** 0.06
5053 H 9.15478106703003 72.34845777592395 143.38290079416018 H 0.0 **** 0.06
5054 H 10.662617955858423 71.41451495734202 143.54453759373976 H 0.0 **** 0.06
5055 H 10.560437504065646 72.74211425882845 142.363627418199 H 0.0 **** 0.06
5056 C 103.65132785463715 94.7302427658438 161.15751431239875 C 0.0 **** -0.24
5057 H 103.49274714299173 94.73850874204356 160.07936326868378 H 0.0 **** 0.06
5058 H 103.83043159177674 93.7076323118618 161.49047014098525 H 0.0 **** 0.06
5059 H 102.76680931379306 95.12592831074602 161.6581716817704 H 0.0 **** 0.06
5060 H 104.51454945168652 95.3488190986177 161.40323295790472 H 0.0 **** 0.06
5061 C 156.37294781619636 61.5291711232113 14.548774956008295 C 0.0 **** -0.24
5062 H 156.2770688647975 62.49310804180995 15.04711485760997 H 0.0 **** 0.06
5063 H 157.16097921210473 60.947680427525825 15.029432846624843 H 0.0 **** 0.06
5064 H 156.62478693926118 61.68501256378019 13.49898097243588 H 0.0 **** 0.06
5065 H 155.42808736406317 60.98862493819327 14.619191277416277 H 0.0 **** 0.06
5066 C 128.78831254505025 10.532569210215208 53.50969664773683 C 0.0 **** -0.24
5067 H 128.79388903813094 9.523794281780916 53.921903981999364 H 0.0 **** 0.06
5068 H 127.80478054555638 10.748436615074297 53.09010520073285 H 0.0 **** 0.06
5069 H 129.54264200151218 10.60959275493677 52.72717043338078 H 0.0 **** 0.06
5070 H 129.0099931493418 11.248950289190141 54.301009940883716 H 0.0 **** 0.06
5071 C 135.52469280081777 40.97326824420122 132.03241713613963 C 0.0 **** -0.24
5072 H 135.19984947943354 41.397866012355166 131.08277278507248 H 0.0 **** 0.06
5073 H 134.65480582720767 40.78556461459391 132.66308416715304 H 0.0 **** 0.06
5074 H 136.1939739035879 41.67246138233429 132.53376094883686 H 0.0 **** 0.06
5075 H 136.05025938306966 40.03500794397502 131.85056478272742 H 0.0 **** 0.06
5076 C 76.52771165205577 1.9741068336302021 95.64552591332597 C 0.0 **** -0.24
5077 H 75.95065806301591 1.0848238856211765 95.39065757495268 H 0.0 **** 0.06
5078 H 77.46546927624874 1.6754083968649809 96.11467381792443 H 0.0 **** 0.06
5079 H 75.95578602043017 2.591279016148178 96.3380794568867 H 0.0 **** 0.06
5080 H 76.73869646139015 2.542062555039138 94.7400351450413 H 0.0 **** 0.06
5081 C 112.63061687949465 50.07191528909941 75.44133340807501 C 0.0 **** -0.24
5082 H 112.72883638758134 49.11356786551379 75.95179400036758 H 0.0 **** 0.06
5083 H 111.58832937167881 50.22906706332935 75.1621973243941 H 0.0 **** 0.06
5084 H 113.25159147382078 50.07186716631472 74.54539177303803 H 0.0 **** 0.06
5085 H 112.95380347192452 50.872079195930084 76.1076314056468 H 0.0 **** 0.06
5086 C 106.14479016348386 58.04479556157719 119.79765826170893 C 0.0 **** -0.24
5087 H 106.40336850228303 58.23184378173244 118.75548022585915 H 0.0 **** 0.06
5088 H 106.59550205189021 58.81239192019643 120.42710523586334 H 0.0 **** 0.06
5089 H 106.520027211111 57.065318782447946 120.09388663292253 H 0.0 **** 0.06
5090 H 105.06112284687924 58.069270991071164 119.91379596372627 H 0.0 **** 0.06
5091 C 50.43255019026799 124.37705582201693 88.10122199407623 C 0.0 **** -0.24
5092 H 50.65990766309858 123.58621706807762 87.38554012521773 H 0.0 **** 0.06
5093 H 50.57340570524809 124.000337795311 89.11515254384805 H 0.0 **** 0.06
5094 H 49.3976879816413 124.69636822055458 87.97335608055161 H 0.0 **** 0.06
5095 H 51.09816586653528 125.22277458327738 87.9315830455114 H 0.0 **** 0.06
5096 C 81.67585694361635 85.88689568502365 46.266879813657724 C 0.0 **** -0.24
5097 H 82.47994322942482 85.46911751687982 45.65991725699007 H 0.0 **** 0.06
5098 H 81.37567681747277 85.16084450462385 47.02183835862439 H 0.0 **** 0.06
5099 H 80.8239440719964 86.12158970314543 45.62816074085667 H 0.0 **** 0.06
5100 H 82.02457589761462 86.79673518430766 46.754957695157 H 0.0 **** 0.06
5101 C 156.84526620943387 123.33310090465258 158.85217630437225 C 0.0 **** -0.24
5102 H 155.9964431094623 122.67682360985029 158.65718567131205 H 0.0 **** 0.06
5103 H 156.9513934519543 123.4798941011064 159.92666716000156 H 0.0 **** 0.06
5104 H 156.67913820961394 124.29440185709939 158.3672157021894 H 0.0 **** 0.06
5105 H 157.75277479719708 122.87842580726686 158.45561160770322 H 0.0 **** 0.06
5106 C 62.90150302461831 12.642875591906261 57.89306533475238 C 0.0 **** -0.24
5107 H 63.66929209372957 13.416625765650622 57.89095046866947 H 0.0 **** 0.06
5108 H 63.332703412451565 11.704460035084367 58.24140327118535 H 0.0 **** 0.06
5109 H 62.51406091949357 12.512650694601973 56.88241210099385 H 0.0 **** 0.06
5110 H 62.09004631485374 12.93871919191372 58.5585361835453 H 0.0 **** 0.06
5111 C 111.36132609743464 18.231463421569288 140.69654596388244 C 0.0 **** -0.24
5112 H 110.54722885042713 17.88542033100697 141.33351983448557 H 0.0 **** 0.06
5113 H 112.30809385310488 17.843720160765713 141.07461987631524 H 0.0 **** 0.06
5114 H 111.38748797448591 19.321327039006576 140.70131249168088 H 0.0 **** 0.06
5115 H 111.20277470892688 17.87552660835064 139.67916095225704 H 0.0 **** 0.06
5116 C 109.28280649321675 50.91465818623968 8.467792030130425 C 0.0 **** -0.24
5117 H 108.36414780711908 51.205537191271105 8.97879645878993 H 0.0 **** 0.06
5118 H 109.85308611843794 50.23932191620328 9.105750440195436 H 0.0 **** 0.06
5119 H 109.87666987935472 51.803372366013946 8.255661828178773 H 0.0 **** 0.06
5120 H 109.03481622079289 50.41105289364046 7.534320369496527 H 0.0 **** 0.06
5121 C 28.291969932004804 132.41782061642186 100.12740531365674 C 0.0 **** -0.24
5122 H 28.590130591140223 131.72905434293028 99.3361916039415 H 0.0 **** 0.06
5123 H 29.18227880247656 132.81762934837437 100.61410849567963 H 0.0 **** 0.06
5124 H 27.68347584291638 131.88789598478752 100.85970829850984 H 0.0 **** 0.06
5125 H 27.713960676981173 133.2353852651117 99.69751558549913 H 0.0 **** 0.06
5126 C 92.29865697150723 143.6391492467148 154.45898219522618 C 0.0 **** -0.24
5127 H 92.03602814641044 144.67517687492477 154.67298619146462 H 0.0 **** 0.06
5128 H 92.49234364968285 143.11306620468693 155.39416719405293 H 0.0 **** 0.06
5129 H 93.19111933224747 143.6119653778873 153.83437527443337 H 0.0 **** 0.06
5130 H 91.47347105539274 143.1567644492936 153.93469031159216 H 0.0 **** 0.06
5131 C 22.358255344908116 44.63504755918974 87.97294443458686 C 0.0 **** -0.24
5132 H 23.416123493048417 44.384066866435916 88.05082594792952 H 0.0 **** 0.06
5133 H 21.771119618759542 43.91074680949775 88.53761949324546 H 0.0 **** 0.06
5134 H 22.056510465756162 44.61163157244256 86.92598762375405 H 0.0 **** 0.06
5135 H 22.19148576127867 45.63401742389756 88.37834797641956 H 0.0 **** 0.06
5136 C 106.49637505871797 122.16253705107363 130.24665465295547 C 0.0 **** -0.24
5137 H 107.22935276062239 121.44847175822144 130.62153501953534 H 0.0 **** 0.06
5138 H 105.72772640199926 121.63191294999979 129.68438765711767 H 0.0 **** 0.06
5139 H 106.99181048384469 122.88206814638829 129.5944762947912 H 0.0 **** 0.06
5140 H 106.03776138749845 122.68595476444648 131.08541579003443 H 0.0 **** 0.06
5141 C 134.6704332224552 130.27174940310738 104.88586530649968 C 0.0 **** -0.24
5142 H 135.35738273533957 130.77031160551462 104.20288952559363 H 0.0 **** 0.06
5143 H 134.09002792456042 131.0184656497263 105.42680001775656 H 0.0 **** 0.06
5144 H 135.2375639542952 129.66735322214333 105.59444831017862 H 0.0 **** 0.06
5145 H 133.99660298790374 129.62883972966677 104.31839296177822 H 0.0 **** 0.06
5146 C 59.64357728814605 101.72749818108852 112.655633772134 C 0.0 **** -0.24
5147 H 59.47570348200952 100.65890902164085 112.79107918076008 H 0.0 **** 0.06
5148 H 60.5039498392963 102.03738406552867 113.24925880919099 H 0.0 **** 0.06
5149 H 58.76033658866834 102.27815759271184 112.9789059907344 H 0.0 **** 0.06
5150 H 59.83574764911418 101.93480551102164 111.60210060625249 H 0.0 **** 0.06
5151 C 139.34852498329258 155.08158096830743 48.414854962827576 C 0.0 **** -0.24
5152 H 138.91857246657872 154.08711889352273 48.293154975692175 H 0.0 **** 0.06
5153 H 139.56616443996734 155.256808213356 49.46900029026784 H 0.0 **** 0.06
5154 H 138.64007727470312 155.83011466823083 48.06110366996148 H 0.0 **** 0.06
5155 H 140.27052543304836 155.15238275173945 47.83683405721092 H 0.0 **** 0.06
5156 C 53.029366729984346 49.684181192993165 127.0583158339225 C 0.0 **** -0.24
5157 H 52.371716199921195 50.53558136076437 126.88486448192285 H 0.0 **** 0.06
5158 H 52.47767038353882 48.89762796995859 127.57342167994628 H 0.0 **** 0.06
5159 H 53.87471868646696 49.997090236398094 127.67310842378981 H 0.0 **** 0.06
5160 H 53.39503142199072 49.30773031532787 126.10309705343806 H 0.0 **** 0.06
5161 C 21.466696901392083 51.97694457782586 145.51428112983962 C 0.0 **** -0.24
5162 H 20.679187334005064 52.70381458416915 145.7129933033766 H 0.0 **** 0.06
5163 H 22.33286995805244 52.2004549697283 146.13742173118908 H 0.0 **** 0.06
5164 H 21.751993672208016 52.02986030285888 144.46284659407252 H 0.0 **** 0.06
5165 H 21.10273627588316 50.97552145465522 145.74151935875324 H 0.0 **** 0.06
5166 C 124.59738418197449 108.61278221919204 71.59831376192753 C 0.0 **** -0.24
5167 H 123.98789741392139 108.36121217100495 72.46641240495046 H 0.0 **** 0.06
5168 H 125.03879819549266 107.70378594419307 71.18826336061636 H 0.0 **** 0.06
5169 H 125.38946241755272 109.29979938597276 71.89691943931899 H 0.0 **** 0.06
5170 H 123.97216769787704 109.08706121589256 70.84168925552484 H 0.0 **** 0.06
5171 C 127.56671527797346 24.616505805749398 71.04535895352005 C 0.0 **** -0.24
5172 H 127.29759775589093 24.337693408582055 70.02621456534915 H 0.0 **** 0.06
5173 H 128.65007146732935 24.575353395037496 71.15747807157148 H 0.0 **** 0.06
5174 H 127.10224536353283 23.924181847071765 71.74668987023709 H 0.0 **** 0.06
5175 H 127.21816565108301 25.629179227368468 71.24853021083591 H 0.0 **** 0.06
5176 C 156.3580424457483 74.94343109522958 86.57204674015313 C 0.0 **** -0.24
5177 H 157.3529340085555 74.53263588612533 86.39998590122705 H 0.0 **** 0.06
5178 H 156.24620484835276 75.87029796616237 86.00888066277415 H 0.0 **** 0.06
5179 H 156.22716322159005 75.14503375199081 87.63485049904688 H 0.0 **** 0.06
5180 H 155.60676520351197 74.22522379956793 86.24351570087853 H 0.0 **** 0.06
5181 C 66.50124005102847 153.5000415877221 62.6129361561955 C 0.0 **** -0.24
5182 H 66.64389368501999 152.42166690400245 62.67659786968571 H 0.0 **** 0.06
5183 H 66.43000714865154 153.79601568985785 61.56644628440952 H 0.0 **** 0.06
5184 H 67.3478062651228 154.00701242114576 63.077482297295774 H 0.0 **** 0.06
5185 H 65.58326386404825 153.77648258144325 63.13220677190701 H 0.0 **** 0.06
5186 C 8.234616267122817 135.75262041966585 53.538458185723016 C 0.0 **** -0.24
5187 H 8.32699518667448 135.0283240695526 54.34810613727072 H 0.0 **** 0.06
5188 H 7.938401621605237 136.71823384043088 53.94747339512182 H 0.0 **** 0.06
5189 H 7.480793556078368 135.4112920424137 52.82905906530766 H 0.0 **** 0.06
5190 H 9.193786466546868 135.85178737979126 53.02923590611135 H 0.0 **** 0.06
5191 C 52.58623975558851 27.969861857685572 88.81338671009908 C 0.0 **** -0.24
5192 H 52.70186922947312 27.041338087123222 89.37273838587339 H 0.0 **** 0.06
5193 H 51.53292098668064 28.24774079356743 88.7865967264523 H 0.0 **** 0.06
5194 H 52.950931373389494 27.828812064919674 87.79609087002729 H 0.0 **** 0.06
5195 H 53.15989936623191 28.75908394989571 89.29997792978426 H 0.0 **** 0.06
5196 C 89.59712766123283 12.22422088773586 55.56250353403787 C 0.0 **** -0.24
5197 H 89.73201031224917 13.23312323466898 55.17232461713667 H 0.0 **** 0.06
5198 H 89.1260152731632 12.273891733577521 56.54400481800381 H 0.0 **** 0.06
5199 H 90.56793281285641 11.735328980366205 55.64859615956048 H 0.0 **** 0.06
5200 H 88.96339902384494 11.653544765111668 54.883016477650386 H 0.0 **** 0.06
5201 C 41.19570238957539 24.56746978901623 40.30708270640747 C 0.0 **** -0.24
5202 H 41.94057217403241 25.12141184137647 40.878161557386704 H 0.0 **** 0.06
5203 H 41.685709296518326 23.76967645836885 39.74956600924486 H 0.0 **** 0.06
5204 H 40.6950553031229 25.242482942537833 39.613116866782036 H 0.0 **** 0.06
5205 H 40.461723571405116 24.137278967703992 40.98948496950351 H 0.0 **** 0.06
5206 C 92.08332883461537 86.93849858521497 77.30075874385909 C 0.0 **** -0.24
5207 H 93.0082014053462 86.36655045943712 77.36954754666826 H 0.0 **** 0.06
5208 H 91.61405874811325 86.75294980409211 76.33381141450215 H 0.0 **** 0.06
5209 H 92.30481608207731 88.0014726663415 77.39880655112164 H 0.0 **** 0.06
5210 H 91.40592133659297 86.6330858834391 78.09742051692517 H 0.0 **** 0.06
5211 C 137.2110754205725 54.75219460858702 107.61707116886609 C 0.0 **** -0.24
5212 H 138.14433369682993 54.95571061205652 108.14188834999351 H 0.0 **** 0.06
5213 H 136.41516095121673 55.36391064148883 108.04310114543179 H 0.0 **** 0.06
5214 H 136.95739362350537 53.69809687418986 107.72424081787261 H 0.0 **** 0.06
5215 H 137.32935796151892 54.99279715793594 106.56053839092726 H 0.0 **** 0.06
5216 C 122.01536400462533 131.29431477351298 42.18046188990135 C 0.0 **** -0.24
5217 H 121.90265023195695 132.30420773153793 42.573925552206816 H 0.0 **** 0.06
5218 H 121.56979334658212 130.58150406294817 42.87341174130559 H 0.0 **** 0.06
5219 H 123.07491142893917 131.06912509179352 42.05841795059544 H 0.0 **** 0.06
5220 H 121.5163953744219 131.22378196369988 41.213467933107 H 0.0 **** 0.06
5221 C 83.32645136178382 150.73243068367753 155.56530608173694 C 0.0 **** -0.24
5222 H 83.5198614536604 150.7685179642212 156.6371116058777 H 0.0 **** 0.06
5223 H 84.22554850860915 151.02722492517742 155.02444517278298 H 0.0 **** 0.06
5224 H 82.51353222827895 151.41696832967955 155.31936380342253 H 0.0 **** 0.06
5225 H 83.04571833415663 149.7183062066089 155.2801896464718 H 0.0 **** 0.06
5226 C 135.57922650306216 109.01392532641847 12.987345902805203 C 0.0 **** -0.24
5227 H 135.8584459256869 108.00031809440668 13.27459099367536 H 0.0 **** 0.06
5228 H 136.18169302978296 109.32770661954657 12.133436472520657 H 0.0 **** 0.06
5229 H 135.75492797258238 109.69049664460647 13.823988069827294 H 0.0 **** 0.06
5230 H 134.52434599031034 109.0376994781023 12.716165681447904 H 0.0 **** 0.06
5231 C 28.214349461505073 67.39676657944558 57.30083934541223 C 0.0 **** -0.24
5232 H 28.58056154571718 67.85183790356423 58.221383027336145 H 0.0 **** 0.06
5233 H 28.748322278738627 66.46329942710739 57.11998306294909 H 0.0 **** 0.06
5234 H 28.38299950794986 68.07846700074357 56.46672689647127 H 0.0 **** 0.06
5235 H 27.147707346099146 67.19310782443083 57.39500708978608 H 0.0 **** 0.06
5236 C 141.81314027382928 131.32135942399967 151.12306327006112 C 0.0 **** -0.24
5237 H 142.2887062496834 130.44167483688855 151.55953315275858 H 0.0 **** 0.06
5238 H 142.5803177210962 132.01793441181337 150.78374051620784 H 0.0 **** 0.06
5239 H 141.18852561639744 131.80558624080874 151.87290974694452 H 0.0 **** 0.06
5240 H 141.19637015501394 131.01774880684766 150.27703781128864 H 0.0 **** 0.06
5241 C 28.87691361648327 152.66443681541585 73.75138173133013 C 0.0 **** -0.24
5242 H 29.433150386710878 153.49024617396492 74.19429526409404 H 0.0 **** 0.06
5243 H 28.565857974438885 152.9364794782764 72.74217408764449 H 0.0 **** 0.06
5244 H 27.99641463426662 152.4530425081923 74.35896619127071 H 0.0 **** 0.06
5245 H 29.51060316343463 151.7796008083029 73.71093924037491 H 0.0 **** 0.06
5246 C 92.39726414056035 74.70425428742321 137.30221786405997 C 0.0 **** -0.24
5247 H 91.32502748814936 74.71117137447905 137.1034149313856 H 0.0 **** 0.06
5248 H 92.74264572169764 75.72480959441528 137.46666930843418 H 0.0 **** 0.06
5249 H 92.92139261633265 74.27572134446656 136.44897073592333 H 0.0 **** 0.06
5250 H 92.5972398319713 74.10506740719401 138.1909876240104 H 0.0 **** 0.06
5251 C 26.143110607666387 132.75486192937032 14.697742775803356 C 0.0 **** -0.24
5252 H 25.267871319911933 133.19678281651363 14.221230463654386 H 0.0 **** 0.06
5253 H 26.640081458170073 132.0861678786963 13.995222966059679 H 0.0 **** 0.06
5254 H 25.830901565958158 132.19262445660968 15.577554335671067 H 0.0 **** 0.06
5255 H 26.830932790520563 133.5455056414728 14.996431578680266 H 0.0 **** 0.06
5256 C 1.6903760728046962 40.776731518041714 101.62748998896802 C 0.0 **** -0.24
5257 H 1.7182490701531492 39.80460512154691 102.11984577977935 H 0.0 **** 0.06
5258 H 0.7059988356995461 41.22431891606249 101.76368039035418 H 0.0 **** 0.06
5259 H 1.8884005162488222 40.650282935481826 100.56294786098167 H 0.0 **** 0.06
5260 H 2.4494019031494645 41.4269779651448 102.06387656207218 H 0.0 **** 0.06
5261 C 121.50425337358416 89.56687021805641 140.04943122038776 C 0.0 **** -0.24
5262 H 121.2479231672043 90.4264960801018 139.43019373851934 H 0.0 **** 0.06
5263 H 120.82092899071483 88.74558153006046 139.8316272757371 H 0.0 **** 0.06
5264 H 121.42144141724464 89.8389178354646 141.1015919133683 H 0.0 **** 0.06
5265 H 122.52671991917293 89.25648542659889 139.8343119539263 H 0.0 **** 0.06
5266 C 94.92843693981219 21.534675697219484 135.32684253604984 C 0.0 **** -0.24
5267 H 95.76867962461341 21.564576036858284 134.63318263729633 H 0.0 **** 0.06
5268 H 95.30000384312508 21.37835376266611 136.33926405238995 H 0.0 **** 0.06
5269 H 94.26197663066142 20.7166953094316 135.05319203130568 H 0.0 **** 0.06
5270 H 94.38470413942682 22.47827751555053 135.2791339175218 H 0.0 **** 0.06
5271 C 72.01962737171806 95.5543786386132 95.95423060841179 C 0.0 **** -0.24
5272 H 72.09089321542768 96.58215595600231 96.31116175372647 H 0.0 **** 0.06
5273 H 72.98793409653061 95.23726866310237 95.56557106569309 H 0.0 **** 0.06
5274 H 71.2724099728608 95.49517201006336 95.16345721387344 H 0.0 **** 0.06
5275 H 71.7287598141618 94.9040237578346 96.77929451791329 H 0.0 **** 0.06
5276 C 37.9932595623947 140.12802813373435 11.150439768053332 C 0.0 **** -0.24
5277 H 38.0773773107876 139.1239472232567 10.735929750728928 H 0.0 **** 0.06
5278 H 37.900741340354514 140.0668319608573 12.235408571272274 H 0.0 **** 0.06
5279 H 37.11140814637491 140.61860660597895 10.738271474935686 H 0.0 **** 0.06
5280 H 38.88230489738419 140.7024289228993 10.893716326206913 H 0.0 **** 0.06
5281 C 87.73628661688798 113.89324955073778 68.93581915144995 C 0.0 **** -0.24
5282 H 87.93532555624085 112.8263737508326 68.83734901869342 H 0.0 **** 0.06
5283 H 88.17358663105759 114.42440931424778 68.08935124745557 H 0.0 **** 0.06
5284 H 88.17617648804794 114.26187202576574 69.86272758350988 H 0.0 **** 0.06
5285 H 86.6593017128377 114.06119004932722 68.9530054876834 H 0.0 **** 0.06
5286 C 77.89427659972901 51.34107688116555 8.361812466572275 C 0.0 **** -0.24
5287 H 78.09574762936869 52.407654135935545 8.459849348790243 H 0.0 **** 0.06
5288 H 78.08150186116643 50.84690380572266 9.314967500506725 H 0.0 **** 0.06
5289 H 78.54742176253228 50.91818483619514 7.598235632131519 H 0.0 **** 0.06
5290 H 76.85430147930822 51.19354811815997 8.0729390887428 H 0.0 **** 0.06
5291 C 154.01229397272442 90.92467763376642 151.87938280746897 C 0.0 **** -0.24
5292 H 153.0975874301292 90.70006780751011 152.42619828248596 H 0.0 **** 0.06
5293 H 154.68202797389205 90.06549873766569 151.92276325842653 H 0.0 **** 0.06
5294 H 154.50084229076802 91.78958199532319 152.3285296134926 H 0.0 **** 0.06
5295 H 153.7693054938311 91.14467638830884 150.83939721597423 H 0.0 **** 0.06
5296 C 16.776567355255935 113.84502999584618 150.72079460652867 C 0.0 **** -0.24
5297 H 15.900221558477341 113.84444651032499 151.3689447120426 H 0.0 **** 0.06
5298 H 17.39595799981504 112.97705467095705 150.94765564876576 H 0.0 **** 0.06
5299 H 17.35142756971254 114.75552708768083 150.8894618230841 H 0.0 **** 0.06
5300 H 16.459071867610106 113.80372026120801 149.67922273895675 H 0.0 **** 0.06
5301 C 121.51207083375172 15.175960581273898 57.80462929156852 C 0.0 **** -0.24
5302 H 121.37531264585101 15.407359197684116 58.86139499948359 H 0.0 **** 0.06
5303 H 122.21186990528625 14.345969364456266 57.70240050822366 H 0.0 **** 0.06
5304 H 121.9090979938735 16.05172134631357 57.289729863583034 H 0.0 **** 0.06
5305 H 120.5531088423981 14.900848031041562 57.365734276366425 H 0.0 **** 0.06
5306 C 33.38353720959708 156.6485308189546 31.94252954079718 C 0.0 **** -0.24
5307 H 33.19072582431971 156.0715566912547 32.84659893022348 H 0.0 **** 0.06
5308 H 32.75818573058393 156.27394672592936 31.13239243591022 H 0.0 **** 0.06
5309 H 34.43430706441862 156.54843582887477 31.66629661073881 H 0.0 **** 0.06
5310 H 33.154781450526286 157.69752308840754 32.12512695444258 H 0.0 **** 0.06
5311 C 11.90202443842719 160.96172187465373 123.47121332644221 C 0.0 **** -0.24
5312 H 11.545400204886391 160.02318184689173 123.04611845748451 H 0.0 **** 0.06
5313 H 12.0599748852826 160.83732491411675 124.54288115388613 H 0.0 **** 0.06
5314 H 11.161216051382837 161.74295879300848 123.30038103054807 H 0.0 **** 0.06
5315 H 12.841598743254679 161.24189167880445 122.99466650691576 H 0.0 **** 0.06
5316 C 97.18468190278915 62.892156467681104 20.71776576823339 C 0.0 **** -0.24
5317 H 97.0119291851725 63.71654057840698 20.025426824449767 H 0.0 **** 0.06
5318 H 96.35967662185666 62.18215029019902 20.649271896477558 H 0.0 **** 0.06
5319 H 97.24779617868225 63.27918733725349 21.734952358995315 H 0.0 **** 0.06
5320 H 98.11753593840672 62.39066220854113 20.460523264570668 H 0.0 **** 0.06
5321 C 39.50566706070926 42.71866613810687 113.91630584462635 C 0.0 **** -0.24
5322 H 38.822003187464446 43.443305759202644 113.47232045102646 H 0.0 **** 0.06
5323 H 39.15866353444885 42.4577157684011 114.91695081881377 H 0.0 **** 0.06
5324 H 40.50366819344816 43.15192598405912 113.97934145775253 H 0.0 **** 0.06
5325 H 39.53650182765108 41.822362570652274 113.29810366150767 H 0.0 **** 0.06
5326 C 148.82979367636256 25.088796410997503 141.909876131585 C 0.0 **** -0.24
5327 H 148.12842574667383 24.701957006481194 142.6497079926803 H 0.0 **** 0.06
5328 H 149.84977796383004 24.931756638266364 142.259790978261 H 0.0 **** 0.06
5329 H 148.65480993045136 26.155171966631656 141.76693305850955 H 0.0 **** 0.06
5330 H 148.68437231980084 24.567150901269088 140.96411007380019 H 0.0 **** 0.06
5331 C 87.80505067248754 7.146733552351236 13.904351533705949 C 0.0 **** -0.24
5332 H 88.42369489881757 6.249550039150847 13.930407778445428 H 0.0 **** 0.06
5333 H 87.54669395261372 7.439087650954775 14.92319490114864 H 0.0 **** 0.06
5334 H 86.89356497119556 6.943288515691961 13.342101770783785 H 0.0 **** 0.06
5335 H 88.35624867947263 7.955107305093691 13.423935580164233 H 0.0 **** 0.06
5336 C 151.9455362583202 117.09872572047937 125.99544175534723 C 0.0 **** -0.24
5337 H 152.66967112347203 116.5301037057954 126.57991638604929 H 0.0 **** 0.06
5338 H 152.30419687489155 117.198036199777 124.97045547409783 H 0.0 **** 0.06
5339 H 151.8210714627175 118.08826861222155 126.43472210140789 H 0.0 **** 0.06
5340 H 150.9883025991821 116.57715398522203 125.99667046347264 H 0.0 **** 0.06
5341 C 129.7076781352684 153.00110783719268 117.1530997234477 C 0.0 **** -0.24
5342 H 128.7265897094937 152.7829975174007 116.73016323688321 H 0.0 **** 0.06
5343 H 130.3086503797857 152.09128517705142 117.16349072978022 H 0.0 **** 0.06
5344 H 129.59030039949482 153.37133148482772 118.17106177737315 H 0.0 **** 0.06
5345 H 130.20437660743096 153.75816903461683 116.54569635848512 H 0.0 **** 0.06
5346 C 162.7076512002256 5.597888694163203 79.49185998038752 C 0.0 **** -0.24
5347 H 162.77007222585962 4.579910154707591 79.10692209933404 H 0.0 **** 0.06
5348 H 162.72907864269223 5.576511195683224 80.58136386662457 H 0.0 **** 0.06
5349 H 161.7788675845649 6.0571893505756975 79.15529687925277 H 0.0 **** 0.06
5350 H 163.55410210227691 6.177373385336921 79.1223153397373 H 0.0 **** 0.06
5351 C 64.8362207454403 52.47328841826075 131.78825036975869 C 0.0 **** -0.24
5352 H 65.02299623866588 51.40506807815311 131.68507560815425 H 0.0 **** 0.06
5353 H 65.7267457646393 52.96066821322228 132.18853409787855 H 0.0 **** 0.06
5354 H 63.99826328245547 52.63256844158046 132.46663227512053 H 0.0 **** 0.06
5355 H 64.59838967938788 52.89622389983242 130.8114091005263 H 0.0 **** 0.06
5356 C 160.77937077994702 65.08300694521563 60.57503301821595 C 0.0 **** -0.24
5357 H 160.964264256156 66.12693942671189 60.82796033570878 H 0.0 **** 0.06
5358 H 160.88224842633232 64.4688037883321 61.468962821264256 H 0.0 **** 0.06
5359 H 161.50043443248245 64.75801544769381 59.82509929652281 H 0.0 **** 0.06
5360 H 159.76913443903308 64.97991310083984 60.17695501325977 H 0.0 **** 0.06
5361 C 130.9799422974774 26.266218164199998 37.44123489790873 C 0.0 **** -0.24
5362 H 131.71553738995885 25.467244584453752 37.33956392954556 H 0.0 **** 0.06
5363 H 131.4516440476757 27.223947530481873 37.220296468471346 H 0.0 **** 0.06
5364 H 130.59404804290617 26.276306873567464 38.459985927821634 H 0.0 **** 0.06
5365 H 130.15998400137758 26.094488694866264 36.74319817439533 H 0.0 **** 0.06
5366 C 140.59457050855366 131.93835150819956 27.74092043704524 C 0.0 **** -0.24
5367 H 139.7551856935916 132.52934539038682 28.108219006403957 H 0.0 **** 0.06
5368 H 140.29304710403082 131.40042412611513 26.841926201677893 H 0.0 **** 0.06
5369 H 140.89883263122113 131.22550213588093 28.50684417141494 H 0.0 **** 0.06
5370 H 141.42918044691007 132.59995992106462 27.50792595357401 H 0.0 **** 0.06
5371 C 2.0261512978357104 90.0898594932575 39.52965122505208 C 0.0 **** -0.24
5372 H 1.9335083724995101 91.15080254266161 39.29613247061411 H 0.0 **** 0.06
5373 H 2.758213926198806 89.956879350318 40.326709861401866 H 0.0 **** 0.06
5374 H 2.3521172273625126 89.5491494083565 38.641632280704926 H 0.0 **** 0.06
5375 H 1.059573473188685 89.70427825381005 39.85501608777071 H 0.0 **** 0.06
5376 C 61.15170360499644 120.39971489861173 139.1123385881477 C 0.0 **** -0.24
5377 H 61.47393185365161 121.42280616319539 138.91531038159548 H 0.0 **** 0.06
5378 H 61.79950530493153 119.95432483155332 139.86669889380462 H 0.0 **** 0.06
5379 H 61.2096130296693 119.81774924935141 138.19206940872635 H 0.0 **** 0.06
5380 H 60.12368290565499 120.40685212551281 139.47362010786574 H 0.0 **** 0.06
5381 C 87.1905276567988 13.163173199765026 98.70763945624151 C 0.0 **** -0.24
5382 H 87.47362984467959 14.021271303249222 98.09693274074476 H 0.0 **** 0.06
5383 H 86.89400243003351 13.50507797978409 99.69888097352202 H 0.0 **** 0.06
5384 H 88.03919958953179 12.484360178738001 98.79493610893928 H 0.0 **** 0.06
5385 H 86.35629613903517 12.64247357590807 98.23702863427451 H 0.0 **** 0.06
5386 C 147.55281252297104 0.04713532642279006 18.186752315250992 C 0.0 **** -0.24
5387 H 146.50747949979322 0.2601281085582059 18.407339623103752 H 0.0 **** 0.06
5388 H 148.16050269711332 0.9200902142371774 18.427856676982067 H 0.0 **** 0.06
5389 H 147.66073537614477 -0.1895206706910244 17.128950629064043 H 0.0 **** 0.06
5390 H 147.88388116545624 -0.8018157057438486 18.784613122281094 H 0.0 **** 0.06
5391 C 139.72279588980922 130.57564725115395 159.6051365593004 C 0.0 **** -0.24
5392 H 139.61531300166638 131.08534237067323 158.6473938040604 H 0.0 **** 0.06
5393 H 139.9072845954924 131.31141662278577 160.38861166360448 H 0.0 **** 0.06
5394 H 140.56121332986822 129.88071296852124 159.55363502687672 H 0.0 **** 0.06
5395 H 138.80921380002366 130.02636522760432 159.82865797995754 H 0.0 **** 0.06
5396 C 160.4007831624019 46.22513195504709 22.49553417123355 C 0.0 **** -0.24
5397 H 160.462727538289 46.037823637136 23.567653731768587 H 0.0 **** 0.06
5398 H 159.87328420604806 47.16283066455313 22.321075485149244 H 0.0 **** 0.06
5399 H 159.8594139757928 45.4089840121473 22.01574584977542 H 0.0 **** 0.06
5400 H 161.40558163664647 46.28921972877782 22.079583935908616 H 0.0 **** 0.06
5401 C 113.28036527914537 145.05880142081054 139.21970127016994 C 0.0 **** -0.24
5402 H 114.25921513098922 145.35297517788354 138.8416012697715 H 0.0 **** 0.06
5403 H 112.55147987792498 145.09910236869712 138.40966436345644 H 0.0 **** 0.06
5404 H 112.97884598847355 145.73974318016752 140.01474230740018 H 0.0 **** 0.06
5405 H 113.33329291035352 144.04268329088654 139.61089364566305 H 0.0 **** 0.06
5406 C 93.57662989084074 22.889890948964855 33.596785287943646 C 0.0 **** -0.24
5407 H 92.61000757789861 23.383577439478906 33.69494229266115 H 0.0 **** 0.06
5408 H 93.73669886898969 22.610552201794746 32.55508779677612 H 0.0 **** 0.06
5409 H 93.59201845059314 21.996205900275058 34.22010548000799 H 0.0 **** 0.06
5410 H 94.36660275158113 23.569918918928707 33.91595562365083 H 0.0 **** 0.06
5411 C 48.423407060579564 16.914450693510872 153.4149166197535 C 0.0 **** -0.24
5412 H 47.64458243922377 17.42071822976044 152.84418089959894 H 0.0 **** 0.06
5413 H 48.2914032766073 17.12657115814352 154.47574636843203 H 0.0 **** 0.06
5414 H 49.40134215836042 17.272929139609005 153.09137984053268 H 0.0 **** 0.06
5415 H 48.356518024500474 15.839562491015414 153.2469313103881 H 0.0 **** 0.06
5416 C 31.230455378804194 27.530968982857964 140.4589195844488 C 0.0 **** -0.24
5417 H 31.943286005221246 28.23549242068274 140.03091132925 H 0.0 **** 0.06
5418 H 31.70812892419692 26.55816871786226 140.57771562873768 H 0.0 **** 0.06
5419 H 30.370902988366637 27.43561648756115 139.79522352820132 H 0.0 **** 0.06
5420 H 30.900486605813782 27.894752117792542 141.4317275200258 H 0.0 **** 0.06
5421 C 29.224776333419882 102.21434344957828 106.73324173582125 C 0.0 **** -0.24
5422 H 29.844220746789702 102.83731205293944 106.08812656003002 H 0.0 **** 0.06
5423 H 28.325231341311508 102.76295896514955 107.01194708407886 H 0.0 **** 0.06
5424 H 29.784248951688163 101.95142253082275 107.63101890024663 H 0.0 **** 0.06
5425 H 28.9463393138251 101.30500812778433 106.19995759399578 H 0.0 **** 0.06
5426 C 22.51712548012955 4.119291790076375 15.581605060084655 C 0.0 **** -0.24
5427 H 21.613894347787152 4.208655012856212 14.97790513725073 H 0.0 **** 0.06
5428 H 22.45550535887503 3.21892851029736 16.193902225615147 H 0.0 **** 0.06
5429 H 22.61086222925718 4.991891408853149 16.226863254133207 H 0.0 **** 0.06
5430 H 23.38644987845612 4.055516141843668 14.927995406127422 H 0.0 **** 0.06
5431 C 31.268062943177824 99.69239827450355 50.23145623715425 C 0.0 **** -0.24
5432 H 30.95505714234703 100.07992315590204 51.20102402441864 H 0.0 **** 0.06
5433 H 31.848055502142927 100.45278266639406 49.70771385052427 H 0.0 **** 0.06
5434 H 30.38770963153968 99.43648121238505 49.64109584871227 H 0.0 **** 0.06
5435 H 31.879117951753848 98.80231529325553 50.376100187206134 H 0.0 **** 0.06
5436 C 50.087875288299216 86.50005385426779 151.88804202779545 C 0.0 **** -0.24
5437 H 49.77134517661868 87.29593296525982 152.5629131370294 H 0.0 **** 0.06
5438 H 49.277288165695694 85.78092143571254 151.76917679279086 H 0.0 **** 0.06
5439 H 50.960586168798955 85.9982365911226 152.30499164695811 H 0.0 **** 0.06
5440 H 50.34102276435122 86.92564261579803 150.917759917419 H 0.0 **** 0.06
5441 C 21.682113260932823 23.547332272103517 18.48267774657444 C 0.0 **** -0.24
5442 H 20.598827009670146 23.455230535749735 18.403931148994587 H 0.0 **** 0.06
5443 H 22.029414344693464 24.32801546539433 17.80494874171046 H 0.0 **** 0.06
5444 H 22.148235928232452 22.599229234028137 18.214686812568374 H 0.0 **** 0.06
5445 H 21.95089110041073 23.80867933210731 19.50592308725581 H 0.0 **** 0.06
5446 C 39.13617735367997 146.32776994303367 58.0384352820259 C 0.0 **** -0.24
5447 H 39.15717579873957 146.2382170263911 56.952122155228565 H 0.0 **** 0.06
5448 H 38.33918102467065 147.01252172158905 58.33000472376963 H 0.0 **** 0.06
5449 H 40.09340378992515 146.71277903369133 58.389724906465815 H 0.0 **** 0.06
5450 H 38.954177998938945 145.34815379384372 58.479051050200454 H 0.0 **** 0.06
5451 C 93.78050968899431 38.58220272259854 33.05998101513663 C 0.0 **** -0.24
5452 H 93.4705236694515 38.29192302324935 32.05554273710331 H 0.0 **** 0.06
5453 H 92.91557069513388 38.94109246092006 33.617977031186285 H 0.0 **** 0.06
5454 H 94.52625532479 39.37463004494674 32.99442760466252 H 0.0 **** 0.06
5455 H 94.20951589747146 37.71944105674825 33.57024551243791 H 0.0 **** 0.06
5456 C 152.9818081148119 157.28056233073363 146.81087037786037 C 0.0 **** -0.24
5457 H 153.70011089230857 156.80952159627162 147.48065135117025 H 0.0 **** 0.06
5458 H 152.9927333813816 158.36002116964346 146.9671878764692 H 0.0 **** 0.06
5459 H 151.98407462544486 156.89417787848248 147.0183307022327 H 0.0 **** 0.06
5460 H 153.24896942415094 157.06027385003136 145.77692710026662 H 0.0 **** 0.06
5461 C 70.47767296249879 87.81907699553685 51.47196078021632 C 0.0 **** -0.24
5462 H 71.54672942372014 87.96151500935225 51.30990649616568 H 0.0 **** 0.06
5463 H 70.01820417751833 87.44985116712168 50.554330342132985 H 0.0 **** 0.06
5464 H 70.02284998496691 88.76826396406304 51.75063789568421 H 0.0 **** 0.06
5465 H 70.32553845995176 87.09331601144036 52.27102395122688 H 0.0 **** 0.06
5466 C 8.524346139970866 109.0520680462397 72.98536424714334 C 0.0 **** -0.24
5467 H 7.908650413288171 109.85037636220815 73.39828000577629 H 0.0 **** 0.06
5468 H 8.200039114326025 108.83164553861502 71.96786301551664 H 0.0 **** 0.06
5469 H 8.421665498811286 108.1586828815505 73.6016251497537 H 0.0 **** 0.06
5470 H 9.568386612753962 109.36790497266571 72.97389963162787 H 0.0 **** 0.06
5471 C 129.0292369741283 28.21419941537522 86.75013002983303 C 0.0 **** -0.24
5472 H 129.1707072907583 28.173677615694515 87.82944738042443 H 0.0 **** 0.06
5473 H 129.1008635715342 29.24891742554388 86.41363463163748 H 0.0 **** 0.06
5474 H 128.04545021099983 27.818043827596654 86.49806214758473 H 0.0 **** 0.06
5475 H 129.79806712595052 27.617357426026274 86.2596999273203 H 0.0 **** 0.06
5476 C 73.26486679744546 71.96088788450953 54.163752200654315 C 0.0 **** -0.24
5477 H 73.11710766347231 73.03959273111131 54.2130364884285 H 0.0 **** 0.06
5478 H 74.25514731605982 71.74798745217302 53.76029244283309 H 0.0 **** 0.06
5479 H 72.506142140724 71.52035838309675 53.51593698891621 H 0.0 **** 0.06
5480 H 73.1798008144831 71.53596639787229 55.163677873328666 H 0.0 **** 0.06
5481 C 81.99171301663591 116.97148124513217 107.69426382035573 C 0.0 **** -0.24
5482 H 82.94629738544052 116.99227010283153 108.22002932117843 H 0.0 **** 0.06
5483 H 82.1436135747212 116.60059682510814 106.68083754772647 H 0.0 **** 0.06
5484 H 81.57554487038658 117.97856487436775 107.65507811845802 H 0.0 **** 0.06
5485 H 81.30052461633579 116.31290055874683 108.22194931914834 H 0.0 **** 0.06
5486 C 79.63693827748286 44.383723020258046 82.87475332477204 C 0.0 **** -0.24
5487 H 79.74605357120353 45.005594909929314 83.76357168490856 H 0.0 **** 0.06
5488 H 80.44160840393069 43.64929829822111 82.84465080920535 H 0.0 **** 0.06
5489 H 79.68261630013836 45.01228579822998 81.98564860894422 H 0.0 **** 0.06
5490 H 78.67614666866585 43.86988533976722 82.90726765394386 H 0.0 **** 0.06
5491 C 127.31250740399241 82.50618949918973 69.90110319314753 C 0.0 **** -0.24
5492 H 127.0808360251259 83.1018248614402 69.0178989384868 H 0.0 **** 0.06
5493 H 128.1299678484791 81.82166552251047 69.67162063510378 H 0.0 **** 0.06
5494 H 126.43256601823293 81.9353228625074 70.19455717982038 H 0.0 **** 0.06
5495 H 127.6082097659808 83.16542525716028 70.71697032167867 H 0.0 **** 0.06
5496 C 77.04162831909119 38.80246811211424 159.33433931022392 C 0.0 **** -0.24
5497 H 77.12611283843688 38.594997579123685 158.26696672251387 H 0.0 **** 0.06
5498 H 76.62927046277912 37.930549850793426 159.8421408472915 H 0.0 **** 0.06
5499 H 76.38281469199052 39.65765597834121 159.4868259986858 H 0.0 **** 0.06
5500 H 78.027974589466 39.02695175738995 159.73923183534438 H 0.0 **** 0.06
5501 C 39.671600270045474 37.79560825624836 91.39893239415885 C 0.0 **** -0.24
5502 H 38.95756802256403 37.927986819334905 90.58576529157135 H 0.0 **** 0.06
5503 H 40.0134064603767 36.76032908762522 91.41672151406573 H 0.0 **** 0.06
5504 H 39.18965476942026 38.03578244878773 92.34694598327995 H 0.0 **** 0.06
5505 H 40.522933155670216 38.458116295705054 91.24535099438084 H 0.0 **** 0.06
5506 C 88.39533074792833 131.89104805486411 70.92652296578133 C 0.0 **** -0.24
5507 H 88.90275716653339 132.53304704288755 71.64734722944036 H 0.0 **** 0.06
5508 H 88.47700864605329 132.3260170652105 69.93131068539988 H 0.0 **** 0.06
5509 H 87.34405797404827 131.80073112809222 71.19956738888017 H 0.0 **** 0.06
5510 H 88.85835579769446 130.90355941841503 70.93141129588774 H 0.0 **** 0.06
5511 C 51.74414540496652 80.6770530301475 94.91248544040153 C 0.0 **** -0.24
5512 H 51.060115917419665 80.72159483418808 95.76077877728771 H 0.0 **** 0.06
5513 H 51.23178655329325 80.24235929761457 94.0546943253986 H 0.0 **** 0.06
5514 H 52.60503682640855 80.06101933756354 95.17340750615402 H 0.0 **** 0.06
5515 H 52.08009465674304 81.68431416070439 94.6638250168959 H 0.0 **** 0.06
5516 C 117.83213417967104 127.73873246867555 65.51377633887186 C 0.0 **** -0.24
5517 H 117.95115065675989 127.54814426740111 66.58045252084936 H 0.0 **** 0.06
5518 H 117.67011720931671 126.79461380052092 64.99271556679275 H 0.0 **** 0.06
5519 H 118.73195103178293 128.2170716386591 65.12782024413532 H 0.0 **** 0.06
5520 H 116.97541606183242 128.39254940079962 65.35569316025138 H 0.0 **** 0.06
5521 C 31.822844722339724 107.24668798635 114.2615606870892 C 0.0 **** -0.24
5522 H 31.27314828994313 106.85690861117726 113.40398341944109 H 0.0 **** 0.06
5523 H 31.12042086965092 107.67266617862424 114.97822879568994 H 0.0 **** 0.06
5524 H 32.51571292177957 108.01892887533694 113.927251659414 H 0.0 **** 0.06
5525 H 32.37901380021009 106.43753757829427 114.73413492244433 H 0.0 **** 0.06
5526 C 63.730827000125146 19.426950817107667 63.67566959100077 C 0.0 **** -0.24
5527 H 63.4968301632407 18.524721656009632 64.24003902003926 H 0.0 **** 0.06
5528 H 64.8037216654102 19.470429980044173 63.488489321425675 H 0.0 **** 0.06
5529 H 63.42572217855377 20.3028120462578 64.24874465342265 H 0.0 **** 0.06
5530 H 63.19629807219428 19.4109717406171 62.72582573405822 H 0.0 **** 0.06
5531 C 147.05329496268033 17.378078707036387 75.5338598218438 C 0.0 **** -0.24
5532 H 147.01780238621387 16.3809660600172 75.97123890523932 H 0.0 **** 0.06
5533 H 146.15675579129893 17.546188110878745 74.93776035315966 H 0.0 **** 0.06
5534 H 147.9339544129951 17.46459078918678 74.8974924395057 H 0.0 **** 0.06
5535 H 147.1062668134129 18.122267874077338 76.32969484191625 H 0.0 **** 0.06
5536 C 156.3494689878039 42.60108115835976 84.00037217030257 C 0.0 **** -0.24
5537 H 155.47406729867134 42.86426796004724 83.4062430087927 H 0.0 **** 0.06
5538 H 156.0710206135053 42.55274265797675 85.05369538095341 H 0.0 **** 0.06
5539 H 157.12290935139436 43.35567406909553 83.8624288664313 H 0.0 **** 0.06
5540 H 156.72709543601275 41.629837701710585 83.67919729797953 H 0.0 **** 0.06
5541 C 66.71704263182295 31.73717647185329 26.928275956113055 C 0.0 **** -0.24
5542 H 67.72946439457019 31.749900384554536 26.52320662052375 H 0.0 **** 0.06
5543 H 66.02586685733394 31.376919033685063 26.166020424016722 H 0.0 **** 0.06
5544 H 66.434258192897 32.746227905023446 27.228095936211446 H 0.0 **** 0.06
5545 H 66.68082334212096 31.077368640878674 27.794034922363608 H 0.0 **** 0.06
5546 C 149.0591801544773 76.05549177603848 60.624390431200595 C 0.0 **** -0.24
5547 H 149.72603178732 75.38577239993285 61.168263339549526 H 0.0 **** 0.06
5548 H 148.3801944292092 76.53952880871896 61.32655593822801 H 0.0 **** 0.06
5549 H 148.48365164863094 75.4827003009508 59.89747729362776 H 0.0 **** 0.06
5550 H 149.64810765781942 76.81250125663405 60.106767122340045 H 0.0 **** 0.06
5551 C 118.99113008352629 31.775095991414332 112.94024151577793 C 0.0 **** -0.24
5552 H 119.88548288427305 31.227531785115048 113.2369052170163 H 0.0 **** 0.06
5553 H 119.27062834938394 32.596536991758995 112.280179948773 H 0.0 **** 0.06
5554 H 118.4983191598813 32.17222142060538 113.82815461335491 H 0.0 **** 0.06
5555 H 118.31130126230389 31.103819857688535 112.41640284368643 H 0.0 **** 0.06
5556 C 154.7522726535249 24.576870940966018 106.40303104485662 C 0.0 **** -0.24
5557 H 155.21372002927913 25.094251822478157 105.56164634561219 H 0.0 **** 0.06
5558 H 154.7087802215066 25.248347402221384 107.26178868858915 H 0.0 **** 0.06
5559 H 155.34477213472533 23.69820908491593 106.65851993247588 H 0.0 **** 0.06
5560 H 153.7433980319099 24.268178066000786 106.13128570747324 H 0.0 **** 0.06
5561 C 153.85881490189982 113.70307928824207 126.41485026352785 C 0.0 **** -0.24
5562 H 153.25827946355878 113.25938105444209 127.20903533308808 H 0.0 **** 0.06
5563 H 154.0786937923167 112.9475039417938 125.65977141730878 H 0.0 **** 0.06
5564 H 154.7914667243946 114.0813116678398 126.83384275933446 H 0.0 **** 0.06
5565 H 153.30622338848355 114.52486495240984 125.95779573481798 H 0.0 **** 0.06
5566 C 99.34677110621976 102.50167901185517 8.458732991673543 C 0.0 **** -0.24
5567 H 99.93157434540902 101.99898281802413 7.687980382960916 H 0.0 **** 0.06
5568 H 99.31487946023236 101.87965873197217 9.352937964224452 H 0.0 **** 0.06
5569 H 98.33278106622191 102.66629043868812 8.093524627342362 H 0.0 **** 0.06
5570 H 99.8078957174072 103.4598537979196 8.698192857664907 H 0.0 **** 0.06
5571 C 81.49541949855461 21.694715246118733 102.28221987926992 C 0.0 **** -0.24
5572 H 81.97298361521152 20.830252595057885 101.82253123214673 H 0.0 **** 0.06
5573 H 80.45264330430783 21.743018118114065 101.9692111178382 H 0.0 **** 0.06
5574 H 82.01115171953177 22.603489491459953 101.97068893812195 H 0.0 **** 0.06
5575 H 81.54585188563132 21.60289165850017 103.36713179098524 H 0.0 **** 0.06
5576 C 105.11655259316646 115.06782176317438 135.55853965181078 C 0.0 **** -0.24
5577 H 105.11295426278588 114.35714970050304 136.38402743418283 H 0.0 **** 0.06
5578 H 106.09069471047872 115.55252885328284 135.50010161589606 H 0.0 **** 0.06
5579 H 104.34529920250625 115.81969375658002 135.72384709190624 H 0.0 **** 0.06
5580 H 104.91552612130357 114.54084864289018 134.6252607145207 H 0.0 **** 0.06
5581 C 100.55831958920413 96.68252151271471 133.6803921552797 C 0.0 **** -0.24
5582 H 100.74016768357652 96.52369700230543 132.6177859813081 H 0.0 **** 0.06
5583 H 101.41600430771052 96.32739917148241 134.2522723200157 H 0.0 **** 0.06
5584 H 99.66640697640997 96.13301812953974 133.98263014144825 H 0.0 **** 0.06
5585 H 100.41069938911954 97.74597174753103 133.86888017834664 H 0.0 **** 0.06
5586 C 114.37427260210771 112.7339233288456 45.71914999975233 C 0.0 **** -0.24
5587 H 114.20604446488457 112.7210559045808 44.641617808773134 H 0.0 **** 0.06
5588 H 114.18640265132984 111.74121228099875 46.12764785661628 H 0.0 **** 0.06
5589 H 113.69883417492946 113.4526460939544 46.182492588674364 H 0.0 **** 0.06
5590 H 115.40620344905449 113.02115245992525 45.92189126557163 H 0.0 **** 0.06
5591 C 93.2714430947281 87.61592026708256 60.36070886180693 C 0.0 **** -0.24
5592 H 93.61180536016114 87.81157331394283 59.3438124695773 H 0.0 **** 0.06
5593 H 93.25873045764975 88.54842424869103 60.92450009397328 H 0.0 **** 0.06
5594 H 93.9482505191346 86.90926662020601 60.83984783572163 H 0.0 **** 0.06
5595 H 92.26692521145755 87.19447955103159 60.33135952316175 H 0.0 **** 0.06
5596 C 43.08382290324586 147.03401387033796 113.18181548472029 C 0.0 **** -0.24
5597 H 43.05209314936441 147.11026593634392 112.09499963202668 H 0.0 **** 0.06
5598 H 44.080391740618495 147.29873732147217 113.53534894293219 H 0.0 **** 0.06
5599 H 42.850144877775904 146.01260275788604 113.48078496565427 H 0.0 **** 0.06
5600 H 42.350934017158124 147.71591587037784 113.61443591228957 H 0.0 **** 0.06
5601 C 143.329534463988 122.62967099065028 116.46499345282587 C 0.0 **** -0.24
5602 H 142.77297616355736 122.31611602064746 117.34761396270218 H 0.0 **** 0.06
5603 H 142.972340616903 122.07792673941279 115.59490568615996 H 0.0 **** 0.06
5604 H 144.39008180086077 122.42645793755324 116.61327917526887 H 0.0 **** 0.06
5605 H 143.18390477248107 123.69780214372736 116.30347041517018 H 0.0 **** 0.06
5606 C 84.36763186073063 41.78810875296807 10.044395266012828 C 0.0 **** -0.24
5607 H 84.48642734899673 40.9631430024541 9.342189463953687 H 0.0 **** 0.06
5608 H 83.38798229499758 41.72160518718181 10.519731904324175 H 0.0 **** 0.06
5609 H 84.448566312467 42.73525754873259 9.510466761638241 H 0.0 **** 0.06
5610 H 85.14589638623795 41.73293806378375 10.805149734109492 H 0.0 **** 0.06
5611 C 130.02921239477007 7.396665148406328 145.9910244569733 C 0.0 **** -0.24
5612 H 130.51925327749257 6.490756422265179 145.63414328450378 H 0.0 **** 0.06
5613 H 128.97915520256993 7.380209745353454 145.69750955601143 H 0.0 **** 0.06
5614 H 130.51526549496123 8.268596456679745 145.55488114104475 H 0.0 **** 0.06
5615 H 130.1027042943773 7.444309776298951 147.07762778586252 H 0.0 **** 0.06
5616 C 49.30168499232495 52.03434046060866 144.43635065576134 C 0.0 **** -0.24
5617 H 48.63496975663202 51.80237526167667 143.6048238391555 H 0.0 **** 0.06
5618 H 49.64745449075595 53.06412649574702 144.34723821381039 H 0.0 **** 0.06
5619 H 50.15747783477897 51.359723364366346 144.4154644199084 H 0.0 **** 0.06
5620 H 48.76436068993418 51.910611510647016 145.37626744879455 H 0.0 **** 0.06
5621 C 112.81221502332855 63.1076752072358 141.1324457080915 C 0.0 **** -0.24
5622 H 113.64777447883358 63.40606504673033 140.5005519613823 H 0.0 **** 0.06
5623 H 112.07314880667977 62.578979785990825 140.5303758295859 H 0.0 **** 0.06
5624 H 112.35553319558682 63.993625526469515 141.57304936303302 H 0.0 **** 0.06
5625 H 113.17206453999137 62.45204357846211 141.92486499331133 H 0.0 **** 0.06
5626 C 161.42026816645046 57.53475381847089 141.66194500412723 C 0.0 **** -0.24
5627 H 162.04544111793865 56.95085828220812 140.98730094709768 H 0.0 **** 0.06
5628 H 160.90297949948828 56.86533415110195 142.3498458868841 H 0.0 **** 0.06
5629 H 160.68747933674638 58.09715029686322 141.08319152313263 H 0.0 **** 0.06
5630 H 162.04395536438125 58.226033935075165 142.22806417230373 H 0.0 **** 0.06
5631 C 56.3885326403129 115.58640345704711 19.576092519322515 C 0.0 **** -0.24
5632 H 55.64562000160244 114.78904881397759 19.593040577205045 H 0.0 **** 0.06
5633 H 57.32056036300905 115.22337705543006 20.01021005697885 H 0.0 **** 0.06
5634 H 56.023236699880826 116.43395209771646 20.155330820202607 H 0.0 **** 0.06
5635 H 56.56301149115376 115.89807722817505 18.54666091737593 H 0.0 **** 0.06
5636 C 137.8313676375417 152.43171039759144 133.9019165812586 C 0.0 **** -0.24
5637 H 138.23049269605957 153.38198694908868 133.54781559633125 H 0.0 **** 0.06
5638 H 136.97917179397268 152.61710583804336 134.55729791459646 H 0.0 **** 0.06
5639 H 138.60381770089214 151.89535153581474 134.45248801933178 H 0.0 **** 0.06
5640 H 137.5104444171713 151.83269757175367 133.04933943229503 H 0.0 **** 0.06
5641 C 150.90798596630898 24.726968508246472 90.94696555235225 C 0.0 **** -0.24
5642 H 150.20272353513857 25.34111748145793 91.50677605024929 H 0.0 **** 0.06
5643 H 150.6971016962044 24.813048492332342 89.88093228687343 H 0.0 **** 0.06
5644 H 150.80683482287262 23.686467577260117 91.25495110954407 H 0.0 **** 0.06
5645 H 151.92327220851195 25.068120619605565 91.14562580402917 H 0.0 **** 0.06
5646 C 1.9310930330606837 5.927436462887869 20.210127284303134 C 0.0 **** -0.24
5647 H 2.640389044878063 6.689537723830007 20.534723535972077 H 0.0 **** 0.06
5648 H 1.2085663517780176 6.371929448294104 19.52612580930851 H 0.0 **** 0.06
5649 H 1.4101809340158056 5.523359482479691 21.0780778766564 H 0.0 **** 0.06
5650 H 2.4678761482312694 5.125626406539787 19.702818319629664 H 0.0 **** 0.06
5651 C 43.63820212225801 161.0764196585816 51.16237761473322 C 0.0 **** -0.24
5652 H 43.07095262191535 160.26569515497889 50.7047679009919 H 0.0 **** 0.06
5653 H 44.36422922924862 160.6621504698903 51.86158396531064 H 0.0 **** 0.06
5654 H 42.95816818314108 161.74011350126068 51.69502584472703 H 0.0 **** 0.06
5655 H 44.159527308266775 161.63771445762546 50.38640204740291 H 0.0 **** 0.06
5656 C 56.06153497474297 89.53183715080623 85.45592371457064 C 0.0 **** -0.24
5657 H 57.0223323048361 89.8041197259913 85.89063567617286 H 0.0 **** 0.06
5658 H 55.93897937285861 90.03762861752986 84.49866672457816 H 0.0 **** 0.06
5659 H 55.25957977489246 89.83255794164872 86.13075091103633 H 0.0 **** 0.06
5660 H 56.02387850458105 88.45285580550252 85.30566358843402 H 0.0 **** 0.06
5661 C 131.94049148672678 161.40198116610335 5.472564351491847 C 0.0 **** -0.24
5662 H 132.1262121661141 162.47246045716136 5.5703540711462125 H 0.0 **** 0.06
5663 H 132.14696906548846 160.9103858255326 6.4236720797384805 H 0.0 **** 0.06
5664 H 132.59128847246598 160.98975713848722 4.701633432931537 H 0.0 **** 0.06
5665 H 130.89988035158183 161.23791787253026 5.195852399494697 H 0.0 **** 0.06
5666 C 28.509823425993375 22.53598430014722 152.01418634607853 C 0.0 **** -0.24
5667 H 29.57605426710711 22.441044470666128 151.80776180942934 H 0.0 **** 0.06
5668 H 28.353288214558802 22.605386448833258 153.09043070065167 H 0.0 **** 0.06
5669 H 27.986045642494275 21.662082068287106 151.6260979599715 H 0.0 **** 0.06
5670 H 28.12486958083298 23.4341138826816 151.5318600802105 H 0.0 **** 0.06
5671 C 49.613437859409146 26.524394872442258 48.87279455375129 C 0.0 **** -0.24
5672 H 50.28015805380778 25.736910420333402 49.22568874265178 H 0.0 **** 0.06
5673 H 49.06965723311026 26.17201609143467 47.99526749662819 H 0.0 **** 0.06
5674 H 50.19861632044626 27.40492573317863 48.60845497271144 H 0.0 **** 0.06
5675 H 48.90572590827722 26.7802157471028 49.66054025652859 H 0.0 **** 0.06
5676 C 92.80978829763971 122.82452986045226 159.84352630816508 C 0.0 **** -0.24
5677 H 92.88015249621591 122.96113802257597 158.76427427345263 H 0.0 **** 0.06
5678 H 91.9269772622825 123.34306923411853 160.21826950940996 H 0.0 **** 0.06
5679 H 93.70103388581471 123.23392521417549 160.31921171341094 H 0.0 **** 0.06
5680 H 92.7315061676155 121.76150115814147 160.07049487236023 H 0.0 **** 0.06
5681 C 82.93956697022753 18.28391384509328 2.598489653256337 C 0.0 **** -0.24
5682 H 82.44209398853096 17.340201150771918 2.371307156722253 H 0.0 **** 0.06
5683 H 82.27795586818726 18.905725325886017 3.201921588268476 H 0.0 **** 0.06
5684 H 83.17842197668398 18.801215930745144 1.6688119028061408 H 0.0 **** 0.06
5685 H 83.85812421688809 18.086262132237188 3.1504554331180543 H 0.0 **** 0.06
5686 C 62.46046202937828 2.746549541936645 38.14271199416123 C 0.0 **** -0.24
5687 H 62.95110549800836 3.6616680667535206 38.47386289637565 H 0.0 **** 0.06
5688 H 61.81596099357108 2.9669975459066222 37.291753153483015 H 0.0 **** 0.06
5689 H 61.86143969247246 2.339292377333095 38.957494610198665 H 0.0 **** 0.06
5690 H 63.21573276280435 2.0169221843858622 37.84699767479934 H 0.0 **** 0.06
5691 C 5.07704832528816 25.772450564207503 140.28943695524103 C 0.0 **** -0.24
5692 H 4.148754965507351 25.203044373785303 140.34267138993553 H 0.0 **** 0.06
5693 H 5.254236745015305 26.26648845425683 141.24472365628827 H 0.0 **** 0.06
5694 H 4.998478915061639 26.521119414563742 139.5013058443578 H 0.0 **** 0.06
5695 H 5.9043936462614965 25.09855663212946 140.06951990105642 H 0.0 **** 0.06
5696 C 33.27142422212893 127.27610296381175 70.08930003925227 C 0.0 **** -0.24
5697 H 33.92357844612653 126.4551955821741 70.38738692796719 H 0.0 **** 0.06
5698 H 33.29669870619085 127.38428021213875 69.00553451909143 H 0.0 **** 0.06
5699 H 33.613938008028356 128.19959081327187 70.55561789121137 H 0.0 **** 0.06
5700 H 32.251658503923466 127.06343134353858 70.40980356640995 H 0.0 **** 0.06
5701 C 0.09866660798562066 156.1554626526897 102.66474072151516 C 0.0 **** -0.24
5702 H 0.15131595544658794 156.36458276572344 101.59620682619658 H 0.0 **** 0.06
5703 H -0.8532723700589848 155.67429338211684 102.89409685911 H 0.0 **** 0.06
5704 H 0.17785337207254415 157.08856587698065 103.2213928985858 H 0.0 **** 0.06
5705 H 0.9178369372897563 155.49305261771752 102.94545194122009 H 0.0 **** 0.06
5706 C 155.0752322286125 6.696481176670034 159.28212157878815 C 0.0 **** -0.24
5707 H 154.45212360062177 7.131853103754878 158.50149122361694 H 0.0 **** 0.06
5708 H 155.27339975692155 7.446686871117095 160.0490537582475 H 0.0 **** 0.06
5709 H 156.01792191218297 6.360686306422451 158.85041819440602 H 0.0 **** 0.06
5710 H 154.55772755046263 5.847695528274187 159.72974720652974 H 0.0 **** 0.06
5711 C 127.61472463179791 120.83358798877305 24.192116214664402 C 0.0 **** -0.24
5712 H 127.21260541570246 120.79967213894031 23.179497475231493 H 0.0 **** 0.06
5713 H 127.48714430238968 121.83692554713576 24.599225386143495 H 0.0 **** 0.06
5714 H 128.67611425781453 120.58266264758475 24.16963403002452 H 0.0 **** 0.06
5715 H 127.0846070746909 120.11700851450098 24.818418895702727 H 0.0 **** 0.06
5716 C 161.6059965017063 91.85471389859951 7.221405513192252 C 0.0 **** -0.24
5717 H 160.52350149021228 91.79464051378206 7.330068145064416 H 0.0 **** 0.06
5718 H 161.8997747320313 91.41270178873998 6.268827678214905 H 0.0 **** 0.06
5719 H 162.08319283196724 91.31094439008176 8.036907965838623 H 0.0 **** 0.06
5720 H 161.9159741432634 92.8991224236719 7.249091908883116 H 0.0 **** 0.06
5721 C 63.434367060054 121.55701049739992 70.2187070918418 C 0.0 **** -0.24
5722 H 64.33095887830729 121.86305229950841 70.75802925150626 H 0.0 **** 0.06
5723 H 63.71426575364541 121.16895040240226 69.23897500538635 H 0.0 **** 0.06
5724 H 62.774905593992514 122.41568611534629 70.09441066963947 H 0.0 **** 0.06
5725 H 62.91813035951739 120.78096186315781 70.78345484954713 H 0.0 **** 0.06
5726 C 91.63002303560407 7.394675193806151 142.53586590573283 C 0.0 **** -0.24
5727 H 91.09673114239352 6.51479179025533 142.1746639709895 H 0.0 **** 0.06
5728 H 91.71068923927409 7.349366560493415 143.62226268814683 H 0.0 **** 0.06
5729 H 91.08241921437478 8.29291950002365 142.2490051304728 H 0.0 **** 0.06
5730 H 92.62651234153573 7.420012489532766 142.09688539678172 H 0.0 **** 0.06
5731 C 112.65323378052011 141.80096904261276 54.03632797525421 C 0.0 **** -0.24
5732 H 112.75664085918112 140.95049810733948 54.70971716470416 H 0.0 **** 0.06
5733 H 112.73715683678984 142.72665670296706 54.60568562401579 H 0.0 **** 0.06
5734 H 111.6794245408638 141.76148171736995 53.54779324289609 H 0.0 **** 0.06
5735 H 113.43884854674619 141.76493551094458 53.282516435210965 H 0.0 **** 0.06
5736 C 142.40316789762335 15.77395292094161 37.589891458499366 C 0.0 **** -0.24
5737 H 142.44328181805977 15.412037088186707 38.61675689631787 H 0.0 **** 0.06
5738 H 141.38371179663915 16.07913097153954 37.35139301440819 H 0.0 **** 0.06
5739 H 142.7123513532739 14.978062726253683 36.91246896133072 H 0.0 **** 0.06
5740 H 143.07332662252074 16.626580897786084 37.47894696194062 H 0.0 **** 0.06
5741 C 77.90660959673127 40.30070068986353 76.39092684474592 C 0.0 **** -0.24
5742 H 77.03989815642782 39.641902628753385 76.45081232367104 H 0.0 **** 0.06
5743 H 78.47448699594632 40.23910035619245 77.3194776111767 H 0.0 **** 0.06
5744 H 77.57247408723505 41.32609992849932 76.23573119194046 H 0.0 **** 0.06
5745 H 78.53764484135749 39.99336104645434 75.55679811994021 H 0.0 **** 0.06
5746 C 40.105992200863355 88.6132599468632 25.000344033916747 C 0.0 **** -0.24
5747 H 39.20303068712364 88.30901916522993 25.530542991750337 H 0.0 **** 0.06
5748 H 40.89807435953411 87.88662334524 25.18637095752439 H 0.0 **** 0.06
5749 H 40.42230243817205 89.59424519869032 25.356083616349167 H 0.0 **** 0.06
5750 H 39.90029114745943 88.66279470377586 23.931664848025605 H 0.0 **** 0.06
5751 C 135.2972500164 66.93863248094465 147.09222315531497 C 0.0 **** -0.24
5752 H 135.86963214589775 66.21645295918188 146.50938843175905 H 0.0 **** 0.06
5753 H 135.54476393213807 67.94827319306893 146.76234682894614 H 0.0 **** 0.06
5754 H 135.54338311779702 66.83063938365984 148.14851328588685 H 0.0 **** 0.06
5755 H 134.23210106566538 66.75945862192788 146.9466096626154 H 0.0 **** 0.06
5756 C 48.24224352564511 28.892336873167295 22.00275546846933 C 0.0 **** -0.24
5757 H 49.30952146465279 28.803565327483533 22.205198706869766 H 0.0 **** 0.06
5758 H 47.67868789659627 28.463369662842723 22.8318296916774 H 0.0 **** 0.06
5759 H 48.000836725378804 28.357978112773466 21.084583757802505 H 0.0 **** 0.06
5760 H 47.98004210858983 29.944258897243543 21.89139876404147 H 0.0 **** 0.06
5761 C 139.7058168899336 125.90156494161181 91.92450255919886 C 0.0 **** -0.24
5762 H 138.66231487363837 125.64023914364338 91.74733811728959 H 0.0 **** 0.06
5763 H 139.95631612845133 126.79894922580593 91.35820276822517 H 0.0 **** 0.06
5764 H 140.3445638248732 125.07887048056239 91.60433383879774 H 0.0 **** 0.06
5765 H 139.8579843199445 126.08741609619108 92.98798471477511 H 0.0 **** 0.06
5766 C 80.974672459837 60.59340422876079 61.013210202408914 C 0.0 **** -0.24
5767 H 81.70151830196785 61.404189090491855 60.96935965495854 H 0.0 **** 0.06
5768 H 81.25567327039121 59.815230056011956 60.303352916295694 H 0.0 **** 0.06
5769 H 79.98615100156019 60.977426642175686 60.75904686324546 H 0.0 **** 0.06
5770 H 80.95487647524911 60.17706859870759 62.01978140314708 H 0.0 **** 0.06
5771 C 58.96141032470017 35.732042324422935 23.549558651165206 C 0.0 **** -0.24
5772 H 58.01775065057049 35.30484817098893 23.20930661156904 H 0.0 **** 0.06
5773 H 59.33150109717681 35.16244570975428 24.402228213877862 H 0.0 **** 0.06
5774 H 58.804522088463216 36.7686888407695 23.845720605118878 H 0.0 **** 0.06
5775 H 59.6916783678718 35.691227620005705 22.740767806111222 H 0.0 **** 0.06
5776 C 54.372765077781665 57.66078608198603 115.01457609012513 C 0.0 **** -0.24
5777 H 53.91100669612818 57.76536544502494 115.99664341223146 H 0.0 **** 0.06
5778 H 55.43956146063995 57.47039942772864 115.13337114353672 H 0.0 **** 0.06
5779 H 54.22790057430936 58.57966034451033 114.44566638945298 H 0.0 **** 0.06
5780 H 53.91194970205086 56.827998112632315 114.48333768464474 H 0.0 **** 0.06
5781 C 94.38754871420562 113.79571859588884 24.02075384325228 C 0.0 **** -0.24
5782 H 94.39822337930748 112.88029723567172 23.429549456828283 H 0.0 **** 0.06
5783 H 95.15169847724827 113.73579995789498 24.795876258901835 H 0.0 **** 0.06
5784 H 93.40858892522911 113.91606269495372 24.48426745993642 H 0.0 **** 0.06
5785 H 94.59141824290211 114.64831062082158 23.37371065985137 H 0.0 **** 0.06
5786 C 37.44615898043324 8.412752724212737 20.791389032885334 C 0.0 **** -0.24
5787 H 38.213057250758766 8.369048536170624 20.018657634340606 H 0.0 **** 0.06
5788 H 37.57800115842849 9.318231128342802 21.383819079413627 H 0.0 **** 0.06
5789 H 37.53234073666107 7.539495227871441 21.43803492325739 H 0.0 **** 0.06
5790 H 36.46055020161768 8.423521180607793 20.32517743364223 H 0.0 **** 0.06
5791 C 9.088819501542758 45.55858987999733 108.02725377571468 C 0.0 **** -0.24
5792 H 8.144924234638609 45.204653325875256 107.61304671775787 H 0.0 **** 0.06
5793 H 9.83160484655707 45.62448166568623 107.23293329444596 H 0.0 **** 0.06
5794 H 9.434039429067752 44.86087101797659 108.79132739669177 H 0.0 **** 0.06
5795 H 8.942998938986733 46.54231945477113 108.47309941380968 H 0.0 **** 0.06
5796 C 25.830157686454584 23.910617012123588 79.43999944676779 C 0.0 **** -0.24
5797 H 24.828401009416723 23.599746695438157 79.14287813778398 H 0.0 **** 0.06
5798 H 26.199855932050355 24.66241391491876 78.7421731773918 H 0.0 **** 0.06
5799 H 26.494576374858468 23.04689532361496 79.43119658433389 H 0.0 **** 0.06
5800 H 25.79562253747855 24.332762462940494 80.44467074511215 H 0.0 **** 0.06
5801 C 62.59606830053144 112.67896199766017 95.50274607672984 C 0.0 **** -0.24
5802 H 62.274698938000256 111.97989299602753 96.2743878969455 H 0.0 **** 0.06
5803 H 63.393941382592345 112.22641290384132 94.9128013684776 H 0.0 **** 0.06
5804 H 62.961965060385864 113.59300259256528 95.9694710280192 H 0.0 **** 0.06
5805 H 61.75239041890342 112.9141933835362 94.8529586340124 H 0.0 **** 0.06
5806 C 54.78600846515093 122.77554494096114 108.82762832845523 C 0.0 **** -0.24
5807 H 54.432210907735694 121.89477228388694 109.36497618442868 H 0.0 **** 0.06
5808 H 55.60990362018181 122.49317900783615 108.1721162285757 H 0.0 **** 0.06
5809 H 55.1300180543376 123.52232560591528 109.54379724822508 H 0.0 **** 0.06
5810 H 53.97195013284126 123.18940685566685 108.23346659136385 H 0.0 **** 0.06
5811 C 158.6435018986972 17.473722972705687 81.55774958601434 C 0.0 **** -0.24
5812 H 158.87880068666215 18.454915006722274 81.14483973673475 H 0.0 **** 0.06
5813 H 158.82311367694962 17.478964659788275 82.63283050821278 H 0.0 **** 0.06
5814 H 159.27633723134207 16.721357034406218 81.08671901196875 H 0.0 **** 0.06
5815 H 157.59633732140387 17.241178923212033 81.36429812554769 H 0.0 **** 0.06
5816 C 109.20361661704737 137.3202017600852 61.37192303310519 C 0.0 **** -0.24
5817 H 110.02781988438753 138.00803608959947 61.56307687494865 H 0.0 **** 0.06
5818 H 108.34141137092956 137.88033142312054 61.00808546924077 H 0.0 **** 0.06
5819 H 108.9391295215299 136.8052206941391 62.295345973522046 H 0.0 **** 0.06
5820 H 109.50617075732052 136.5896379840098 60.62156283742968 H 0.0 **** 0.06
5821 C 156.175434331594 70.83685345423997 18.169417548337975 C 0.0 **** -0.24
5822 H 155.15153253212972 70.8430519983237 18.543054452923172 H 0.0 **** 0.06
5823 H 156.20462616724504 70.34373434548363 17.197552202491295 H 0.0 **** 0.06
5824 H 156.8133198442907 70.29803103358955 18.869766258584917 H 0.0 **** 0.06
5825 H 156.5309198294024 71.86249221860743 18.06877932616402 H 0.0 **** 0.06
5826 C 54.897804813974346 105.15736151821909 112.82059075555796 C 0.0 **** -0.24
5827 H 54.51769754774216 105.86509927103424 112.08443073812117 H 0.0 **** 0.06
5828 H 55.03866870291472 104.1833081817723 112.34910119719419 H 0.0 **** 0.06
5829 H 54.18310208777882 105.06527793930962 113.6385971693337 H 0.0 **** 0.06
5830 H 55.85105427444407 105.51435673405365 113.20949654882051 H 0.0 **** 0.06
5831 C 124.29819051948976 56.65773644448244 113.66577809722094 C 0.0 **** -0.24
5832 H 124.46819509705955 56.58938566884973 114.74044105936315 H 0.0 **** 0.06
5833 H 124.56263694200902 57.658012099560665 113.31969339019042 H 0.0 **** 0.06
5834 H 123.24710843666139 56.46544625440613 113.45107880495613 H 0.0 **** 0.06
5835 H 124.91460779721157 55.92092995080256 113.15287681948598 H 0.0 **** 0.06
5836 C 109.96662159106722 111.25284060939029 108.77576782605414 C 0.0 **** -0.24
5837 H 110.14616809948097 111.3568706091549 107.7057647128535 H 0.0 **** 0.06
5838 H 110.37884912176219 110.30406920057453 109.12302595866541 H 0.0 **** 0.06
5839 H 108.89383595139532 111.2747387825672 108.96832251179819 H 0.0 **** 0.06
5840 H 110.44808468175398 112.07406912957597 109.3063927937115 H 0.0 **** 0.06
5841 C 77.1400575737962 138.60712816119337 152.35219996269825 C 0.0 **** -0.24
5842 H 76.41727127143837 139.1362281528933 151.73178881603266 H 0.0 **** 0.06
5843 H 77.10882404618401 137.5422641001456 152.1193891282817 H 0.0 **** 0.06
5844 H 76.89382727851141 138.7554857228439 153.40386033914504 H 0.0 **** 0.06
5845 H 78.14070745486205 138.99295101606162 152.15627801535175 H 0.0 **** 0.06
5846 C 93.66113325151565 30.905335181889974 93.66778556045364 C 0.0 **** -0.24
5847 H 94.71555685595723 31.179058367046025 93.60869748826593 H 0.0 **** 0.06
5848 H 93.07816839345686 31.772527585092448 93.97726763158704 H 0.0 **** 0.06
5849 H 93.53499907624744 30.10340589824108 94.39504647919546 H 0.0 **** 0.06
5850 H 93.31938435448522 30.565888134143357 92.6901822474095 H 0.0 **** 0.06
5851 C 51.64103322256818 20.878040817827582 25.993766588218534 C 0.0 **** -0.24
5852 H 52.47600387932664 20.875259858907725 26.69432074046685 H 0.0 **** 0.06
5853 H 50.743548945539885 21.237338671437044 26.499229682865803 H 0.0 **** 0.06
5854 H 51.47080366721502 19.86579911482363 25.627638911345286 H 0.0 **** 0.06
5855 H 51.87321689196392 21.534376810807373 25.155023083834266 H 0.0 **** 0.06
5856 C 3.5716466000446303 143.34487016811184 101.29860605694068 C 0.0 **** -0.24
5857 H 3.868466026000192 143.22223879543205 102.34085107148138 H 0.0 **** 0.06
5858 H 3.1655092317014635 142.40548751834442 100.92403360884077 H 0.0 **** 0.06
5859 H 4.439638313204256 143.62945538263546 100.70461071090506 H 0.0 **** 0.06
5860 H 2.8112466461990664 144.12365744878466 101.22778807351898 H 0.0 **** 0.06
5861 C 67.57406114816968 156.10614616867272 58.17757697862197 C 0.0 **** -0.24
5862 H 66.83119262962879 155.8335254664406 57.42824850611811 H 0.0 **** 0.06
5863 H 67.93312178087211 155.2064211378994 58.67710794131153 H 0.0 **** 0.06
5864 H 67.12164402100132 156.7734094703159 58.9118632411122 H 0.0 **** 0.06
5865 H 68.40965492155851 156.61200376642748 57.69311437529382 H 0.0 **** 0.06
5866 C 153.26337121461955 86.45459847685186 77.43980734242697 C 0.0 **** -0.24
5867 H 152.9487569956683 85.95446628141275 76.52399539235887 H 0.0 **** 0.06
5868 H 153.56347786852416 87.47734290308387 77.21103955637194 H 0.0 **** 0.06
5869 H 154.10482394143105 85.9168681290787 77.87697921249872 H 0.0 **** 0.06
5870 H 152.43413864137193 86.46937436115957 78.14802193432143 H 0.0 **** 0.06
5871 C 101.47198199740063 129.71911303439936 79.96444890343648 C 0.0 **** -0.24
5872 H 100.9117814981214 130.54030805981225 80.41121167842462 H 0.0 **** 0.06
5873 H 101.03426015789847 128.77017110153702 80.27412882187924 H 0.0 **** 0.06
5874 H 102.51021166344702 129.76587987644322 80.29432449179203 H 0.0 **** 0.06
5875 H 101.43197486075547 129.8020484405929 78.87783626011134 H 0.0 **** 0.06
5876 C 1.7769584056461838 4.5695690226939405 132.269564649118 C 0.0 **** -0.24
5877 H 2.335437436487581 5.5057919382406055 132.270395191247 H 0.0 **** 0.06
5878 H 1.3950238024758335 4.373701302896393 133.27176356520593 H 0.0 **** 0.06
5879 H 2.433292251529622 3.7545846754657077 131.96417267718058 H 0.0 **** 0.06
5880 H 0.9430998670193844 4.645163478813686 131.5715995537749 H 0.0 **** 0.06
5881 C 73.04020353389441 39.67070873737114 18.274145590540428 C 0.0 **** -0.24
5882 H 73.50158847430427 38.6842726813659 18.225888934290225 H 0.0 **** 0.06
5883 H 73.07862802105801 40.138251352220834 17.289194129116225 H 0.0 **** 0.06
5884 H 73.57985535156962 40.28922954298149 18.991351130701844 H 0.0 **** 0.06
5885 H 72.00142990103026 39.57142614035972 18.589509141607493 H 0.0 **** 0.06
5886 C 90.22423495934564 100.98588965415101 38.0216983571369 C 0.0 **** -0.24
5887 H 90.66856536481363 99.99740976743885 38.14033172153975 H 0.0 **** 0.06
5888 H 90.3836785523157 101.33567831559753 37.001356986765714 H 0.0 **** 0.06
5889 H 90.69022567288405 101.67987458192147 38.72109983374381 H 0.0 **** 0.06
5890 H 89.15491983402121 100.92970390370556 38.22395849151677 H 0.0 **** 0.06
5891 C 40.90974999710835 143.32248353463737 94.31743457054402 C 0.0 **** -0.24
5892 H 40.288634573231946 144.15195884546696 94.65560050155528 H 0.0 **** 0.06
5893 H 40.38062241396749 142.76392887258035 93.5448761148928 H 0.0 **** 0.06
5894 H 41.12632627325553 142.66460033075032 95.15843530135953 H 0.0 **** 0.06
5895 H 41.843345691708706 143.7111827550509 93.90983688561295 H 0.0 **** 0.06
5896 C 105.52804139551387 65.12041553604286 42.96559962991232 C 0.0 **** -0.24
5897 H 105.07736297441852 64.20267769243935 43.34431335751758 H 0.0 **** 0.06
5898 H 104.7758943544099 65.70016486092271 42.43010414021532 H 0.0 **** 0.06
5899 H 106.34466649116254 64.86991632506721 42.28798434445211 H 0.0 **** 0.06
5900 H 105.91438457630287 65.70682099681142 43.79871451473113 H 0.0 **** 0.06
5901 C 42.26163208931723 54.56051707509653 58.58395928419098 C 0.0 **** -0.24
5902 H 43.2124622360426 54.03154621142062 58.51571174388437 H 0.0 **** 0.06
5903 H 41.77839683992556 54.31890515029744 59.53117270139887 H 0.0 **** 0.06
5904 H 41.61749570525569 54.256847700804315 57.75872653716203 H 0.0 **** 0.06
5905 H 42.439092571816445 55.63467635334882 58.52915522967167 H 0.0 **** 0.06
5906 C 2.528527246402632 33.63423129915758 96.06655137459171 C 0.0 **** -0.24
5907 H 3.2484840632201895 34.42063204043177 95.83932038886917 H 0.0 **** 0.06
5908 H 1.6621079958014207 34.06799036056758 96.56584048447036 H 0.0 **** 0.06
5909 H 2.9920612622511555 32.893917177102196 96.71874619082223 H 0.0 **** 0.06
5910 H 2.2114080257140643 33.154170655729274 95.13985882303996 H 0.0 **** 0.06
5911 C 22.50356865284266 6.575088354207907 134.12554996042454 C 0.0 **** -0.24
5912 H 22.103825531478577 6.193345798218843 135.06433155135406 H 0.0 **** 0.06
5913 H 22.027913342952758 6.058531777155281 133.29125312128397 H 0.0 **** 0.06
5914 H 23.579015841409102 6.405614156377851 134.09321354106072 H 0.0 **** 0.06
5915 H 22.301780455954912 7.644246907366494 134.05363755188546 H 0.0 **** 0.06
5916 C 87.26533702216167 19.746513187664164 6.062056543810314 C 0.0 **** -0.24
5917 H 87.33586010260474 20.48276798850901 6.863735574663167 H 0.0 **** 0.06
5918 H 88.06002476200227 19.921233388096965 5.337627757862208 H 0.0 **** 0.06
5919 H 86.29722402997973 19.83872033652611 5.56978026840099 H 0.0 **** 0.06
5920 H 87.3665388242045 18.744393779521488 6.480241647648228 H 0.0 **** 0.06
5921 C 19.48977567652375 52.992418118325276 64.53435077333457 C 0.0 **** -0.24
5922 H 20.483970402642967 53.41844389409728 64.66818923097745 H 0.0 **** 0.06
5923 H 19.577332485755193 51.99043781575014 64.11230434915367 H 0.0 **** 0.06
5924 H 18.911740372558995 53.621987497119335 63.85743685085269 H 0.0 **** 0.06
5925 H 18.984970037210275 52.9375331987537 65.49902521487394 H 0.0 **** 0.06
5926 C 78.11008531143386 67.52494357860911 85.43509979997987 C 0.0 **** -0.24
5927 H 77.12940028698368 67.77773617157652 85.03187077343006 H 0.0 **** 0.06
5928 H 78.11985959332333 66.47695126819565 85.73602248416243 H 0.0 **** 0.06
5929 H 78.31931367613538 68.15433649310393 86.29953075606862 H 0.0 **** 0.06
5930 H 78.87016767213443 67.6922474620738 84.67188025424734 H 0.0 **** 0.06
5931 C 53.73775681124789 86.43845698136784 32.258242239035354 C 0.0 **** -0.24
5932 H 53.982126400891275 85.9613762206663 33.20681288867364 H 0.0 **** 0.06
5933 H 54.451862790647226 87.23795552579752 32.0581882071327 H 0.0 **** 0.06
5934 H 52.73155691417185 86.85499287431972 32.3101603381999 H 0.0 **** 0.06
5935 H 53.785188864589486 85.70043853537854 31.45800739519369 H 0.0 **** 0.06
5936 C 154.9514584324043 37.05433839355089 125.91029753229657 C 0.0 **** -0.24
5937 H 154.50512731644807 37.89759588005987 126.4369721847803 H 0.0 **** 0.06
5938 H 155.04524725277975 36.20879557734514 126.59280094088501 H 0.0 **** 0.06
5939 H 155.93875209356656 37.33690530758996 125.54446692755448 H 0.0 **** 0.06
5940 H 154.31785370461628 36.77405766410341 125.06886980822424 H 0.0 **** 0.06
5941 C 98.6521293830634 79.96386089168539 96.88011028382442 C 0.0 **** -0.24
5942 H 99.00286289896457 78.94418578838922 97.03365013806496 H 0.0 **** 0.06
5943 H 99.2235564975797 80.64365601670576 97.51163738366267 H 0.0 **** 0.06
5944 H 97.59559768209948 80.02706602585579 97.13955337115681 H 0.0 **** 0.06
5945 H 98.78653969481698 80.24080999636095 95.83361949457799 H 0.0 **** 0.06
5946 C 96.02137317736515 62.43216282883236 76.91950081971211 C 0.0 **** -0.24
5947 H 96.76637751899293 62.17083273125972 76.16864335182757 H 0.0 **** 0.06
5948 H 96.24347656792818 63.420211017325684 77.3230410611123 H 0.0 **** 0.06
5949 H 96.04413929096825 61.696284064130595 77.72487345449747 H 0.0 **** 0.06
5950 H 95.03154721107092 62.439883615635594 76.46240693290638 H 0.0 **** 0.06
5951 C 50.6324931342604 90.16741879075342 95.40766062273553 C 0.0 **** -0.24
5952 H 51.61450107686073 90.61265594389089 95.24555523501087 H 0.0 **** 0.06
5953 H 50.748846370549145 89.11480732847987 95.66491317938493 H 0.0 **** 0.06
5954 H 50.03829382869476 90.25653620981805 94.49880689719458 H 0.0 **** 0.06
5955 H 50.12942725968465 90.6875649265108 96.22342382932258 H 0.0 **** 0.06
5956 C 135.8010928670165 53.977828702969816 82.30497548727855 C 0.0 **** -0.24
5957 H 135.0737438956466 54.16274015161778 81.51431684159624 H 0.0 **** 0.06
5958 H 136.763426028903 54.40303659092788 82.02014046324766 H 0.0 **** 0.06
5959 H 135.90874270001004 52.903592427940424 82.45618661410279 H 0.0 **** 0.06
5960 H 135.45718315043965 54.44144299882953 83.22960446632658 H 0.0 **** 0.06
5961 C 119.80273204263798 44.32349203791166 138.5955108793621 C 0.0 **** -0.24
5962 H 120.87334691623892 44.126965253637024 138.53184852606375 H 0.0 **** 0.06
5963 H 119.62532534354105 45.14723119490705 139.28689103380128 H 0.0 **** 0.06
5964 H 119.28966592113838 43.43168827687239 138.95354163428112 H 0.0 **** 0.06
5965 H 119.42385520240404 44.58969121694125 137.60885988406636 H 0.0 **** 0.06
5966 C 148.01908762624464 23.947001840394705 18.159337946861626 C 0.0 **** -0.24
5967 H 148.16765581734424 24.739682731117227 17.425830370590745 H 0.0 **** 0.06
5968 H 147.32405775192143 24.28859494456492 18.9266687062929 H 0.0 **** 0.06
5969 H 148.9742224124483 23.693509067911634 18.619255123387234 H 0.0 **** 0.06
5970 H 147.60892176087367 23.066337748770536 17.66365899957026 H 0.0 **** 0.06
5971 C 39.53415811657621 91.27838813666469 133.05735918362038 C 0.0 **** -0.24
5972 H 38.64378441216378 91.90277414744025 132.99713812381881 H 0.0 **** 0.06
5973 H 39.33141130657002 90.41670234735516 133.69457518643412 H 0.0 **** 0.06
5974 H 40.35570795611167 91.85705849149522 133.4784450510757 H 0.0 **** 0.06
5975 H 39.806254302605765 90.93572713114266 132.05903611129304 H 0.0 **** 0.06
5976 C 127.40171933131035 128.74873835263443 9.249411317389388 C 0.0 **** -0.24
5977 H 126.93289335243216 127.9547798560796 8.668482793891712 H 0.0 **** 0.06
5978 H 127.41749446731441 129.66733111487187 8.661883979477437 H 0.0 **** 0.06
5979 H 128.42142693566916 128.4609092302715 9.50253700194611 H 0.0 **** 0.06
5980 H 126.83294044651436 128.91259171726875 10.164490275561093 H 0.0 **** 0.06
5981 C 57.878876713024454 134.32424457190663 9.604616278821112 C 0.0 **** -0.24
5982 H 57.26578726760226 133.90526134310628 10.402088673481664 H 0.0 **** 0.06
5983 H 58.3261276901905 135.25947820093356 9.943569849707266 H 0.0 **** 0.06
5984 H 57.25790686662458 134.51385023482715 8.729947225396522 H 0.0 **** 0.06
5985 H 58.6678681629773 133.61807985220787 9.343231928517284 H 0.0 **** 0.06
5986 C 3.7431025542583214 105.97634089883053 161.92422275284443 C 0.0 **** -0.24
5987 H 3.029095791660481 105.65843499012178 162.6831693879176 H 0.0 **** 0.06
5988 H 3.942282510472488 105.14667386998894 161.24428018924255 H 0.0 **** 0.06
5989 H 4.672342056450184 106.28436080086297 162.404308751224 H 0.0 **** 0.06
5990 H 3.3287078977784645 106.81371842491012 161.3630669858017 H 0.0 **** 0.06
5991 C 117.95957730541187 142.83499375537954 33.41908414947983 C 0.0 **** -0.24
5992 H 117.00499620162645 142.891633597369 33.943378663271346 H 0.0 **** 0.06
5993 H 118.76585829158205 142.7299841719003 34.14480296900871 H 0.0 **** 0.06
5994 H 118.10918582380361 143.74514794023372 32.8386175312034 H 0.0 **** 0.06
5995 H 117.95620788412265 141.9736386692687 32.75142637282434 H 0.0 **** 0.06
5996 C 117.78458204331159 135.95474880671134 54.447951480949726 C 0.0 **** -0.24
5997 H 116.82485748253137 135.62162647536493 54.84491518403209 H 0.0 **** 0.06
5998 H 117.88797450796713 135.61479129391873 53.4175749775947 H 0.0 **** 0.06
5999 H 118.5914659529227 135.53850929945514 55.05109647585327 H 0.0 **** 0.06
6000 H 117.83129316381701 137.04306819093114 54.47893259336047 H 0.0 **** 0.06
6001 C 107.24502479490491 163.0674337597006 160.29881021607366 C 0.0 **** -0.24
6002 H 106.66753399921555 162.71338955687676 161.15325387357007 H 0.0 **** 0.06
6003 H 106.79274250224432 162.69963008831598 159.37704718539328 H 0.0 **** 0.06
6004 H 108.2681571622096 162.6991500333088 160.37460674660355 H 0.0 **** 0.06
6005 H 107.2506036673866 164.15758276065688 160.29126699406584 H 0.0 **** 0.06
6006 C 140.785165921946 149.11937480578928 159.3541690788416 C 0.0 **** -0.24
6007 H 140.53614260115873 149.67219753307737 160.26003125219637 H 0.0 **** 0.06
6008 H 140.2108526603111 148.19309870094133 159.32546842651962 H 0.0 **** 0.06
6009 H 141.8501394219966 148.88727507159606 159.35152110129965 H 0.0 **** 0.06
6010 H 140.54224785360205 149.72407287925216 158.48044778083403 H 0.0 **** 0.06
6011 C 55.24107088461983 153.59575984761534 15.658404545373116 C 0.0 **** -0.24
6012 H 55.395558416131735 154.50057091164848 15.070342979824602 H 0.0 **** 0.06
6013 H 54.674147000165306 152.87296812165357 15.070959815410049 H 0.0 **** 0.06
6014 H 54.686919388393335 153.84162803716578 16.563897664567122 H 0.0 **** 0.06
6015 H 56.20605531309354 153.16819940044536 15.927850138223619 H 0.0 **** 0.06
6016 C 112.44069502701413 80.70915977478806 129.61178190006854 C 0.0 **** -0.24
6017 H 112.84129311701705 80.23434230784007 128.71594295806526 H 0.0 **** 0.06
6018 H 112.81395946050654 81.73048304031029 129.67978391623032 H 0.0 **** 0.06
6019 H 112.75593727142243 80.14754453993264 130.49122690378783 H 0.0 **** 0.06
6020 H 111.3516734061034 80.72201744482878 129.55921318882875 H 0.0 **** 0.06
6021 C 94.93227561405917 114.58785336122014 51.3004016081686 C 0.0 **** -0.24
6022 H 93.94795854742891 115.05481470238641 51.25229850378891 H 0.0 **** 0.06
6023 H 95.68968998121665 115.30405923227102 50.97974677320394 H 0.0 **** 0.06
6024 H 94.95362583187742 113.71818069170581 50.6445819414169 H 0.0 **** 0.06
6025 H 95.1369877770892 114.27660519122753 52.32448136354792 H 0.0 **** 0.06
6026 C 91.51582178062111 38.91437557228727 92.64820523879337 C 0.0 **** -0.24
6027 H 92.20179211907214 39.706564722361634 92.34850222528013 H 0.0 **** 0.06
6028 H 91.3707068761928 38.94793647312946 93.72787749441318 H 0.0 **** 0.06
6029 H 91.93252211779946 37.94763389236158 92.3661818371977 H 0.0 **** 0.06
6030 H 90.5577993577595 39.05691762233073 92.14773378895717 H 0.0 **** 0.06
6031 C 84.88982709986145 129.62015687629176 110.10792947936324 C 0.0 **** -0.24
6032 H 83.87794975319865 129.47618110320778 110.48732515932898 H 0.0 **** 0.06
6033 H 85.28299510592844 128.66786070698228 109.75186658508119 H 0.0 **** 0.06
6034 H 85.52549658238779 130.00067848404333 110.90843027159258 H 0.0 **** 0.06
6035 H 84.87204036231574 130.33607194241986 109.2869751157262 H 0.0 **** 0.06
6036 C 132.834346677918 28.68369836691096 85.76121531629914 C 0.0 **** -0.24
6037 H 133.5639507218587 29.373683431578627 85.33690597666579 H 0.0 **** 0.06
6038 H 133.28587582044935 28.142139175738976 86.59153807673644 H 0.0 **** 0.06
6039 H 132.51569544154876 27.975678162387993 84.99526317806851 H 0.0 **** 0.06
6040 H 131.97022262260094 29.24364565750301 86.11937103313964 H 0.0 **** 0.06
6041 C 112.18791566721112 16.693855391135003 57.739408010991355 C 0.0 **** -0.24
6042 H 112.56562688416179 15.856375756672264 58.3264471672469 H 0.0 **** 0.06
6043 H 111.13133773281609 16.53590846042073 57.519356333951094 H 0.0 **** 0.06
6044 H 112.7473850843729 16.76588893252972 56.8070609849982 H 0.0 **** 0.06
6045 H 112.30746935108147 17.616982194353284 58.306743612299215 H 0.0 **** 0.06
6046 C 19.42671983290822 104.52525727861857 4.743186375419555 C 0.0 **** -0.24
6047 H 19.91974086240691 103.75077823944497 5.331146708118638 H 0.0 **** 0.06
6048 H 18.46966786232207 104.15044024935509 4.3803453968807275 H 0.0 **** 0.06
6049 H 20.05716951267101 104.79449551823078 3.895905536713599 H 0.0 **** 0.06
6050 H 19.259880075096703 105.40388810397405 5.366234705231193 H 0.0 **** 0.06
6051 C 64.73881712282665 39.810928102531605 19.608659672671223 C 0.0 **** -0.24
6052 H 63.73440539093713 39.48446113565039 19.88041743927232 H 0.0 **** 0.06
6053 H 64.6723744299786 40.66838145921871 18.9386455090941 H 0.0 **** 0.06
6054 H 65.26171834303358 38.997343905695374 19.107396389122414 H 0.0 **** 0.06
6055 H 65.28400908825515 40.09332635122513 20.50875898802269 H 0.0 **** 0.06
6056 C 9.85157093940353 91.08008242644894 14.76242775011599 C 0.0 **** -0.24
6057 H 10.368114413254546 91.42517464878637 13.867657385241728 H 0.0 **** 0.06
6058 H 9.060891795991381 90.38447257966232 14.480961421410939 H 0.0 **** 0.06
6059 H 9.417488520978907 91.93362088300233 15.283051808501284 H 0.0 **** 0.06
6060 H 10.561215491508221 90.57747395395836 15.419988548739127 H 0.0 **** 0.06
6061 C 12.978182248627775 158.49003792908783 74.69956430815006 C 0.0 **** -0.24
6062 H 13.037031846303194 159.55321366662162 74.46505214855728 H 0.0 **** 0.06
6063 H 13.191898586263449 157.9084267308529 73.80318069755924 H 0.0 **** 0.06
6064 H 11.97608300481852 158.25320388936473 75.0575609697782 H 0.0 **** 0.06
6065 H 13.706549418909276 158.24779279679805 75.47367310374523 H 0.0 **** 0.06
6066 C 94.98370310731029 43.5684157407112 110.22603396193551 C 0.0 **** -0.24
6067 H 95.02956702052042 42.59715506939864 109.73206017038518 H 0.0 **** 0.06
6068 H 95.21906311608575 43.448226087360126 111.28390777038078 H 0.0 **** 0.06
6069 H 93.98121271017833 43.98280565212008 110.1212110228202 H 0.0 **** 0.06
6070 H 95.70603482378097 44.242498750264645 109.76693178592507 H 0.0 **** 0.06
6071 C 122.0168055662891 45.79813296049862 16.24034875815812 C 0.0 **** -0.24
6072 H 122.8892916548617 46.20078968892447 16.755414246177423 H 0.0 **** 0.06
6073 H 122.2737366327035 44.84244440326404 15.78440617569376 H 0.0 **** 0.06
6074 H 121.69840265230309 46.49721298217371 15.46713432535762 H 0.0 **** 0.06
6075 H 121.2071373533561 45.65467503307006 16.956305518784006 H 0.0 **** 0.06
6076 C 48.820782032093575 83.01778451761045 148.25081746716563 C 0.0 **** -0.24
6077 H 48.573811260515754 83.50735872103022 149.19258356238763 H 0.0 **** 0.06
6078 H 48.27607227322858 83.49899439282473 147.43811751629906 H 0.0 **** 0.06
6079 H 48.54069597207777 81.96598122383907 148.30409476298354 H 0.0 **** 0.06
6080 H 49.892723376121694 83.09971286522298 148.06885214008724 H 0.0 **** 0.06
6081 C 155.37554141815338 73.65259460680073 43.5339896414672 C 0.0 **** -0.24
6082 H 154.57355562651773 74.3694290495977 43.35623125629775 H 0.0 **** 0.06
6083 H 154.9732858080409 72.6402521040909 43.49254153926461 H 0.0 **** 0.06
6084 H 155.8104608961961 73.83221223393542 44.517379402821575 H 0.0 **** 0.06
6085 H 156.1433444744865 73.77010729714911 42.76955842962673 H 0.0 **** 0.06
6086 C 152.501460314756 87.87895081679991 3.2835288141276067 C 0.0 **** -0.24
6087 H 151.7545966434026 88.42277809095276 2.7050442325737833 H 0.0 **** 0.06
6088 H 152.2365972294201 86.82289900974718 3.318255425469374 H 0.0 **** 0.06
6089 H 152.5380502974864 88.27916589296984 4.296216273331112 H 0.0 **** 0.06
6090 H 153.47841657720366 87.99308310133307 2.8121126634627274 H 0.0 **** 0.06
6091 C 79.31597693012588 13.149953719030236 1.8067137691378576 C 0.0 **** -0.24
6092 H 79.44765774284944 14.124067321404056 2.2799745564827845 H 0.0 **** 0.06
6093 H 78.65612289978507 12.5350283781479 2.420101403896261 H 0.0 **** 0.06
6094 H 80.28430493630385 12.660184164227928 1.711003429862032 H 0.0 **** 0.06
6095 H 78.87579996265394 13.283386421586385 0.8187538546183077 H 0.0 **** 0.06
6096 C 138.68843218982522 3.881330990004038 107.24045550772968 C 0.0 **** -0.24
6097 H 138.93414968832215 3.1960523234758895 108.05191649054066 H 0.0 **** 0.06
6098 H 137.7898422900717 4.441231055861017 107.4993859251066 H 0.0 **** 0.06
6099 H 138.51268954066046 3.3128426699163427 106.32720668804055 H 0.0 **** 0.06
6100 H 139.51673487477302 4.572011460022381 107.08524925933284 H 0.0 **** 0.06
6101 C 56.40630959261688 151.10984212191045 109.16725263537697 C 0.0 **** -0.24
6102 H 55.59115900648237 150.68607599296251 109.75327791369367 H 0.0 **** 0.06
6103 H 57.33799587813061 150.60431836313393 109.42253144469137 H 0.0 **** 0.06
6104 H 56.4978624031686 152.17349311347226 109.38802065424503 H 0.0 **** 0.06
6105 H 56.19894878380228 150.97552127782046 108.10639250684721 H 0.0 **** 0.06
6106 C 122.39388129853978 11.948366218184887 77.24692399575412 C 0.0 **** -0.24
6107 H 121.42781563772348 12.234800262150927 77.66166067145167 H 0.0 **** 0.06
6108 H 122.91794302402946 12.838317214283705 76.8982444979187 H 0.0 **** 0.06
6109 H 122.24177246702882 11.264364039185587 76.41139493661306 H 0.0 **** 0.06
6110 H 122.98782064584563 11.455014749702201 78.01657407781174 H 0.0 **** 0.06
6111 C 157.43932345106694 155.56481734793726 45.395500472549344 C 0.0 **** -0.24
6112 H 157.67077505309948 155.7606149102939 46.44264293458882 H 0.0 **** 0.06
6113 H 157.99434601171308 154.6890105214834 45.05899902765174 H 0.0 **** 0.06
6114 H 157.7231840773953 156.42896273663382 44.793258157697224 H 0.0 **** 0.06
6115 H 156.37093532267323 155.38214893813296 45.28686405863235 H 0.0 **** 0.06
6116 C 90.89136633522907 66.92258918488898 111.17762639030406 C 0.0 **** -0.24
6117 H 91.3641608428307 67.42924079952985 112.01998403526039 H 0.0 **** 0.06
6118 H 90.01019575610769 66.38460026355153 111.5257357924774 H 0.0 **** 0.06
6119 H 91.59674024146473 66.21880077120363 110.73605944235999 H 0.0 **** 0.06
6120 H 90.59735543003384 67.65891031392886 110.43063670277559 H 0.0 **** 0.06
6121 C 9.130355961768515 0.9169422222793173 7.900844672069155 C 0.0 **** -0.24
6122 H 9.292335005719451 -0.08698536043090144 7.509686105699103 H 0.0 **** 0.06
6123 H 9.684431449141698 1.6353977918001874 7.2955688274136605 H 0.0 **** 0.06
6124 H 9.480152233845502 0.9654801566260289 8.93225511680697 H 0.0 **** 0.06
6125 H 8.067570999100155 1.1546514923786617 7.8658695959665295 H 0.0 **** 0.06
6126 C 103.24027415504531 85.9353780619175 117.62048628680805 C 0.0 **** -0.24
6127 H 102.64948445086259 85.11748513707141 118.03200484226701 H 0.0 **** 0.06
6128 H 104.17049594125908 86.03001841150069 118.18155982734163 H 0.0 **** 0.06
6129 H 102.67552732828815 86.86519236372092 117.69529451861015 H 0.0 **** 0.06
6130 H 103.4659591399741 85.7302958968582 116.57390687956769 H 0.0 **** 0.06
6131 C 151.5235839629334 151.96722118736406 125.79940538048584 C 0.0 **** -0.24
6132 H 151.92383149825446 152.90845942713537 125.42326135544758 H 0.0 **** 0.06
6133 H 150.67422267472477 152.16931403525507 126.45274738074625 H 0.0 **** 0.06
6134 H 152.29673577984786 151.4424706697004 126.36055956221088 H 0.0 **** 0.06
6135 H 151.19951920115292 151.34890735610858 124.96201663822245 H 0.0 **** 0.06
6136 C 85.53032515026803 55.63801161206578 149.7752461910046 C 0.0 **** -0.24
6137 H 84.76003771055917 56.319636208268605 150.1362406938805 H 0.0 **** 0.06
6138 H 85.66721001125615 54.83039105220185 150.4948936363036 H 0.0 **** 0.06
6139 H 86.46813485127336 56.18030633457805 149.65475032314436 H 0.0 **** 0.06
6140 H 85.22496702251027 55.221520455199496 148.81485803265724 H 0.0 **** 0.06
6141 C 116.22288226871629 157.1840283721724 103.5449664309049 C 0.0 **** -0.24
6142 H 115.14342842639002 157.2783558601841 103.42375750153985 H 0.0 **** 0.06
6143 H 116.53512848175401 157.71518942784567 104.44374230448872 H 0.0 **** 0.06
6144 H 116.72429428160552 157.6116194853264 102.67657671618312 H 0.0 **** 0.06
6145 H 116.4869020769714 156.13050741006415 103.63450393645698 H 0.0 **** 0.06
6146 C 30.652421561548636 79.23424722252136 40.33537122819723 C 0.0 **** -0.24
6147 H 30.58622905440359 80.24970960754676 39.94520262017505 H 0.0 **** 0.06
6148 H 31.530773914309407 78.7409509414638 39.91824079089301 H 0.0 **** 0.06
6149 H 29.756964617947858 78.67882952797166 40.05579133879647 H 0.0 **** 0.06
6150 H 30.735027892012567 79.26658473031085 41.421421095231096 H 0.0 **** 0.06
6151 C 84.47272564486178 143.36419072822395 61.83811313918862 C 0.0 **** -0.24
6152 H 83.39236010600007 143.23241795845104 61.888532035676945 H 0.0 **** 0.06
6153 H 84.93669364130483 142.88169067190756 62.69840102810791 H 0.0 **** 0.06
6154 H 84.70996664399726 144.42768114538478 61.84501777007276 H 0.0 **** 0.06
6155 H 84.85091420577231 142.91301658714406 60.92098656626436 H 0.0 **** 0.06
6156 C 8.371454440115258 76.35493192935375 95.23599472411986 C 0.0 **** -0.24
6157 H 8.740314177348338 76.93657634015494 96.08056095372535 H 0.0 **** 0.06
6158 H 7.3376020041367624 76.06119370954092 95.42081596384696 H 0.0 **** 0.06
6159 H 8.987002148569886 75.4638953052089 95.11221018979474 H 0.0 **** 0.06
6160 H 8.421083370825833 76.95946077766665 94.33028853538475 H 0.0 **** 0.06
6161 C 53.75566476192856 40.56475767375349 156.1939146779333 C 0.0 **** -0.24
6162 H 54.51706218025555 40.77658781556937 156.94490857471905 H 0.0 **** 0.06
6163 H 52.77292007298911 40.81243420841599 156.59392722452952 H 0.0 **** 0.06
6164 H 53.78715780433686 39.50637394023252 155.9336514630315 H 0.0 **** 0.06
6165 H 53.94820972846583 41.16292928628934 155.30368381329853 H 0.0 **** 0.06
6166 C 5.1136842995294955 110.95172520648393 111.03420019969482 C 0.0 **** -0.24
6167 H 6.141574184256001 110.70344536715916 110.77052549332024 H 0.0 **** 0.06
6168 H 4.582845709654578 110.04310936961767 111.32165030958313 H 0.0 **** 0.06
6169 H 4.618553630605618 111.40681760130906 110.17729918924493 H 0.0 **** 0.06
6170 H 5.111913280296562 111.6522525110584 111.86915601207451 H 0.0 **** 0.06
6171 C 132.22123131696418 57.143183936558984 6.807337192830914 C 0.0 **** -0.24
6172 H 131.968714253548 57.71561855332159 5.915202911784775 H 0.0 **** 0.06
6173 H 131.30891106688821 56.886826688602895 7.344918392835382 H 0.0 **** 0.06
6174 H 132.86800501867862 57.7412936914144 7.450625160387915 H 0.0 **** 0.06
6175 H 132.74233297256967 56.23038352903656 6.517681616242214 H 0.0 **** 0.06
6176 C 69.06056286651476 70.94118885564325 97.48492598457224 C 0.0 **** -0.24
6177 H 69.6250106123541 70.56301001965112 98.33772161638166 H 0.0 **** 0.06
6178 H 68.98016473822466 72.02602323148284 97.55400111636561 H 0.0 **** 0.06
6179 H 68.0635191833016 70.50133867420155 97.48681050904125 H 0.0 **** 0.06
6180 H 69.57474316373543 70.67167398469917 96.56167236184706 H 0.0 **** 0.06
6181 C 159.4230644130831 35.52864327465667 137.9012891327085 C 0.0 **** -0.24
6182 H 158.78150574201155 36.19870780347003 138.47362632027028 H 0.0 **** 0.06
6183 H 159.65193939000736 34.646068077252494 138.5003243437391 H 0.0 **** 0.06
6184 H 160.3480526775248 36.0433051723067 137.6442878677165 H 0.0 **** 0.06
6185 H 158.9099172078773 35.22568986863092 136.9888276141006 H 0.0 **** 0.06
6186 C 153.0894787861981 106.92149947051416 154.31468109791152 C 0.0 **** -0.24
6187 H 153.4283310763418 106.07986169644633 153.71013924241907 H 0.0 **** 0.06
6188 H 153.9353860192599 107.34124703244115 154.85983136928445 H 0.0 **** 0.06
6189 H 152.3339049064266 106.57936779719091 155.0220133332389 H 0.0 **** 0.06
6190 H 152.660581438725 107.6848501227858 153.66516996207136 H 0.0 **** 0.06
6191 C 67.8030231211265 23.589653309122752 94.44176797202361 C 0.0 **** -0.24
6192 H 68.42947638259193 24.178271263007588 95.11246171052719 H 0.0 **** 0.06
6193 H 67.23992035049679 24.259456013482406 93.79176453622345 H 0.0 **** 0.06
6194 H 67.11130640206608 22.985221624780564 95.02841963310556 H 0.0 **** 0.06
6195 H 68.43251741370227 22.93783912266099 93.83615749373595 H 0.0 **** 0.06
6196 C 145.37512013316763 66.38792679590495 50.15348242677541 C 0.0 **** -0.24
6197 H 144.36049052242768 66.72142100993591 50.36747581292259 H 0.0 **** 0.06
6198 H 145.83691581985596 66.0188458931352 51.06989386417574 H 0.0 **** 0.06
6199 H 145.9580616077652 67.22297458530727 49.764321410368055 H 0.0 **** 0.06
6200 H 145.34637597961586 65.58942691806845 49.41270476323257 H 0.0 **** 0.06
6201 C 123.59075434761428 65.67246228971862 110.80777835655991 C 0.0 **** -0.24
6202 H 122.5345374897357 65.8100269952041 111.03581061085987 H 0.0 **** 0.06
6203 H 123.71387223645365 65.51838191364182 109.73571628629773 H 0.0 **** 0.06
6204 H 123.96699846438841 64.80212246367772 111.34566943849757 H 0.0 **** 0.06
6205 H 124.14711838545313 66.55804031943387 111.11427379751589 H 0.0 **** 0.06
6206 C 93.34429007060714 86.14169524096371 125.67556524718816 C 0.0 **** -0.24
6207 H 93.88036585694118 85.24007495602456 125.37945468464738 H 0.0 **** 0.06
6208 H 93.5491450654921 86.93770452876359 124.95897015163177 H 0.0 **** 0.06
6209 H 93.67432437846844 86.45065163620797 126.6677452602782 H 0.0 **** 0.06
6210 H 92.27338630869366 85.93694785241377 125.69626616949336 H 0.0 **** 0.06
6211 C 91.74200028368257 43.27603307153004 96.91622651110293 C 0.0 **** -0.24
6212 H 92.12675490926607 44.29389698300923 96.84547468083537 H 0.0 **** 0.06
6213 H 90.7805460413857 43.28637606605312 97.42983494576552 H 0.0 **** 0.06
6214 H 92.44677440051916 42.66053626846957 97.4764104301795 H 0.0 **** 0.06
6215 H 91.61574359927096 42.86493365300248 95.91544465399384 H 0.0 **** 0.06
6216 C 47.22903014310539 34.052905247102785 60.14866763824385 C 0.0 **** -0.24
6217 H 46.31252401617557 33.90949805560406 59.57724072102695 H 0.0 **** 0.06
6218 H 47.91196507678434 34.68944545747418 59.58542052121564 H 0.0 **** 0.06
6219 H 47.69902738307654 33.08702397096326 60.3310320533769 H 0.0 **** 0.06
6220 H 46.99197540390888 34.52754908516141 61.1008693687441 H 0.0 **** 0.06
6221 C 97.24195754125162 101.69937289729614 154.18194065535744 C 0.0 **** -0.24
6222 H 97.4745416376494 100.9105744923161 154.89657520327222 H 0.0 **** 0.06
6223 H 97.9076860294723 102.54618894362403 154.3462908772526 H 0.0 **** 0.06
6224 H 96.20819432443568 102.01811074605996 154.3175860314753 H 0.0 **** 0.06
6225 H 97.37522594000518 101.32249249569253 153.16778210800544 H 0.0 **** 0.06
6226 C 90.8717985313935 145.20856271696454 121.31188562564921 C 0.0 **** -0.24
6227 H 89.80025754849584 145.15636024627483 121.12087866502159 H 0.0 **** 0.06
6228 H 91.36471266890939 145.7134398622334 120.48132643762759 H 0.0 **** 0.06
6229 H 91.27227940292937 144.20004813274198 121.41354806901981 H 0.0 **** 0.06
6230 H 91.04933156700581 145.76482195825523 122.23299287903697 H 0.0 **** 0.06
6231 C 77.94002749662032 161.01163817760164 130.07800669713518 C 0.0 **** -0.24
6232 H 78.3674389431908 161.66211273716158 130.8409019387645 H 0.0 **** 0.06
6233 H 78.69549927307087 160.79056910329348 129.32465107947607 H 0.0 **** 0.06
6234 H 77.09250266884088 161.5113716659468 129.60761962369816 H 0.0 **** 0.06
6235 H 77.60380495229506 160.08294485647167 130.53988113277495 H 0.0 **** 0.06
6236 C 126.62419943416015 78.71880854347418 65.32182641206347 C 0.0 **** -0.24
6237 H 127.40999094022916 78.32858730119308 65.96817688130862 H 0.0 **** 0.06
6238 H 125.77304500121488 79.0261337813523 65.93056710141006 H 0.0 **** 0.06
6239 H 126.31065445790603 77.94336304933957 64.6223525289401 H 0.0 **** 0.06
6240 H 127.00310733729043 79.57715004201165 64.76620913659518 H 0.0 **** 0.06
6241 C 16.357711482870172 116.39777271682073 108.13832392920162 C 0.0 **** -0.24
6242 H 15.617104496653667 115.86042162225442 107.54697131522673 H 0.0 **** 0.06
6243 H 16.255089642698067 116.1208839896342 109.18733738586903 H 0.0 **** 0.06
6244 H 16.200863635161255 117.47139341237897 108.02767469509328 H 0.0 **** 0.06
6245 H 17.357875374377585 116.13924134673982 107.78924570806407 H 0.0 **** 0.06
6246 C 26.44680794242845 17.226138381878215 107.62903319349743 C 0.0 **** -0.24
6247 H 27.334414739642057 17.346177575729925 107.00744278389223 H 0.0 **** 0.06
6248 H 26.537146942831214 16.314818178476635 108.21996144678491 H 0.0 **** 0.06
6249 H 25.56356701602249 17.161811335676987 106.99329711434757 H 0.0 **** 0.06
6250 H 26.3525432385797 18.08393691147495 108.29534072104806 H 0.0 **** 0.06
6251 C 88.80914058969668 4.741549536393734 83.11876455716543 C 0.0 **** -0.24
6252 H 88.5760032160622 5.7950960829173255 82.96175015869741 H 0.0 **** 0.06
6253 H 89.70102623137669 4.655959459457506 83.73900658911896 H 0.0 **** 0.06
6254 H 88.98743371902438 4.2628043626220915 82.15582609673996 H 0.0 **** 0.06
6255 H 87.9708857680507 4.254551837810936 83.61657068186489 H 0.0 **** 0.06
6256 C 66.14013836118664 90.3558359835875 107.75722885678215 C 0.0 **** -0.24
6257 H 66.76537926507781 90.94133764489732 107.08413121655576 H 0.0 **** 0.06
6258 H 66.77227371087885 89.76180674058884 108.41713719078916 H 0.0 **** 0.06
6259 H 65.49897094507537 89.69462212644663 107.1754545061367 H 0.0 **** 0.06
6260 H 65.5225943537259 91.02771304535537 108.35477259661229 H 0.0 **** 0.06
6261 C 0.4143488342402293 7.3930226382829645 119.04600031907253 C 0.0 **** -0.24
6262 H 0.44115143797915835 7.889238014121155 118.07608343367059 H 0.0 **** 0.06
6263 H 0.9677547363775716 6.455516226027903 118.9902105708955 H 0.0 **** 0.06
6264 H -0.621567850998872 7.188388995296158 119.31986635678265 H 0.0 **** 0.06
6265 H 0.8677688138432131 8.03951260121437 119.7971739985498 H 0.0 **** 0.06
6266 C 90.89841035782797 51.712710731557564 76.70201977882527 C 0.0 **** -0.24
6267 H 91.25207220328797 52.007786693983135 75.71381415785368 H 0.0 **** 0.06
6268 H 91.41446490146892 50.80480846080353 77.01581439276734 H 0.0 **** 0.06
6269 H 89.82504590550666 51.5269209112836 76.66212297863706 H 0.0 **** 0.06
6270 H 91.10293079791008 52.5121795481225 77.41445354422115 H 0.0 **** 0.06
6271 C 15.2297979336224 58.203411041690174 61.29197926716556 C 0.0 **** -0.24
6272 H 14.169424142184376 58.21665141720533 61.54315242919725 H 0.0 **** 0.06
6273 H 15.742882161012432 58.995383495047804 61.83833180082088 H 0.0 **** 0.06
6274 H 15.351875910183246 58.361876462472594 60.22113310994905 H 0.0 **** 0.06
6275 H 15.655636245098655 57.2383794366167 61.56696580103815 H 0.0 **** 0.06
6276 C 105.8254446836014 112.68431551664037 102.15809717300937 C 0.0 **** -0.24
6277 H 105.38887591241928 113.13344236550404 101.26599536318258 H 0.0 **** 0.06
6278 H 106.04909311011863 113.46505206319478 102.88467315895122 H 0.0 **** 0.06
6279 H 106.74544002128096 112.1643803426644 101.88924428258065 H 0.0 **** 0.06
6280 H 105.1204476101247 111.97573008853607 102.59050625328433 H 0.0 **** 0.06
6281 C 72.8630448953237 104.78328586854295 11.937774085734631 C 0.0 **** -0.24
6282 H 73.46841414105802 103.87968955540322 12.009262784849206 H 0.0 **** 0.06
6283 H 73.41395633395643 105.62399680361173 12.361386663396154 H 0.0 **** 0.06
6284 H 71.93379107559326 104.64260091242193 12.489502212328425 H 0.0 **** 0.06
6285 H 72.63816741096855 104.98740781121592 10.89066892270727 H 0.0 **** 0.06
6286 C 73.0877560776571 73.78147696249334 146.61764145098343 C 0.0 **** -0.24
6287 H 73.53928906186275 73.71679627219265 145.62728785179124 H 0.0 **** 0.06
6288 H 72.00173529196064 73.76448142266543 146.52396182271482 H 0.0 **** 0.06
6289 H 73.39789459910617 74.70962041080821 147.09745567065423 H 0.0 **** 0.06
6290 H 73.41381668732288 72.93365815470077 147.22074478071252 H 0.0 **** 0.06
6291 C 0.44448357214219314 123.0689230601528 88.6558417079458 C 0.0 **** -0.24
6292 H 0.028774127001717886 122.7604828468927 89.61501173645325 H 0.0 **** 0.06
6293 H 0.1888016082134385 122.32991752210887 87.89537970668835 H 0.0 **** 0.06
6294 H 1.5282477352858663 123.14521679083515 88.73864469511176 H 0.0 **** 0.06
6295 H 0.03231528683925333 124.03767437822427 88.37477228255432 H 0.0 **** 0.06
6296 C 21.75422018146358 22.944523592080373 84.55136121795941 C 0.0 **** -0.24
6297 H 22.340454807232447 22.03004350495644 84.46301542531536 H 0.0 **** 0.06
6298 H 20.864656742647867 22.866617261341418 83.92671145041218 H 0.0 **** 0.06
6299 H 22.354841827368432 23.793397903072844 84.22465049321885 H 0.0 **** 0.06
6300 H 21.45833681718446 23.0879428651933 85.59113707716516 H 0.0 **** 0.06
6301 C 68.54391597503425 42.52310153186767 71.54312327188359 C 0.0 **** -0.24
6302 H 67.6112759203672 42.05259162178277 71.23469539504651 H 0.0 **** 0.06
6303 H 68.70752781901624 42.34406671281084 72.60579845929576 H 0.0 **** 0.06
6304 H 68.48836486272569 43.59672680409659 71.35880085370349 H 0.0 **** 0.06
6305 H 69.37063407976962 42.09928182974744 70.97203315172897 H 0.0 **** 0.06
6306 C 44.448603323290385 42.43467324518362 107.57107257123431 C 0.0 **** -0.24
6307 H 44.7521771009674 41.41852524181509 107.82577651212009 H 0.0 **** 0.06
6308 H 43.80822830662456 42.82971494354611 108.35957225004327 H 0.0 **** 0.06
6309 H 43.902408318455244 42.424581160443154 106.6287058837681 H 0.0 **** 0.06
6310 H 45.33350847021312 43.063950939906576 107.47152687531457 H 0.0 **** 0.06
6311 C 153.0802916510156 33.46111195762086 66.95198093954141 C 0.0 **** -0.24
6312 H 152.360055905274 33.71502126572943 66.17420179919446 H 0.0 **** 0.06
6313 H 153.49145147496648 34.376371746444136 67.37712204059069 H 0.0 **** 0.06
6314 H 153.8851540225867 32.866176925855484 66.52061135493136 H 0.0 **** 0.06
6315 H 152.58267781855625 32.88745357968287 67.73347270205369 H 0.0 **** 0.06
6316 C 35.94047498820919 160.69403285115078 149.2868651514957 C 0.0 **** -0.24
6317 H 35.874047806927024 159.72161973695046 149.77496045457696 H 0.0 **** 0.06
6318 H 35.126214670349015 160.79717549561292 148.56896083056637 H 0.0 **** 0.06
6319 H 36.895855613587784 160.77443102062296 148.76644329392641 H 0.0 **** 0.06
6320 H 35.86766749546223 161.48228916896505 150.03606398870497 H 0.0 **** 0.06
6321 C 160.1940159735778 27.449892887835176 88.75858083356053 C 0.0 **** -0.24
6322 H 159.61356339658585 26.540073181002782 88.60575164337797 H 0.0 **** 0.06
6323 H 159.5715486509988 28.31828273438464 88.54123690370454 H 0.0 **** 0.06
6324 H 161.0573459099562 27.445241459226622 88.09253528896915 H 0.0 **** 0.06
6325 H 160.53312251770234 27.49405929299911 89.79375084323533 H 0.0 **** 0.06
6326 C 59.855189153265854 111.14308775812432 151.14306826505845 C 0.0 **** -0.24
6327 H 59.29290916122582 111.1181544774752 152.07680292449498 H 0.0 **** 0.06
6328 H 60.36370631382209 112.1035862707646 151.050835909709 H 0.0 **** 0.06
6329 H 59.17118911907997 111.01194568010015 150.30426758505703 H 0.0 **** 0.06
6330 H 60.59106941386676 110.33987048772019 151.1404089952992 H 0.0 **** 0.06
6331 C 48.4371118197967 97.4606922028473 115.07975621662541 C 0.0 **** -0.24
6332 H 48.92010757446765 97.90303203252918 114.2090177927804 H 0.0 **** 0.06
6333 H 47.494987233099906 97.97346935948161 115.27203385132648 H 0.0 **** 0.06
6334 H 49.089524936224876 97.56165858990781 115.94705015071125 H 0.0 **** 0.06
6335 H 48.24479675512262 96.4046193673098 114.89067703865268 H 0.0 **** 0.06
6336 C 95.48893355744127 31.97519905044345 35.363759768167455 C 0.0 **** -0.24
6337 H 95.85171838837232 32.68554154839177 36.10734472539524 H 0.0 **** 0.06
6338 H 94.59403291647601 31.481053873829147 35.74188440396752 H 0.0 **** 0.06
6339 H 96.26035188145414 31.230032580680415 35.16691823820888 H 0.0 **** 0.06
6340 H 95.25126762038019 32.50490811179603 34.4421741687126 H 0.0 **** 0.06
6341 C 110.64516311938826 115.1970505865504 42.1981623129539 C 0.0 **** -0.24
6342 H 111.06775721385225 116.17654166622867 41.97415045142657 H 0.0 **** 0.06
6343 H 109.55780513408723 115.24715537063673 42.130081329616885 H 0.0 **** 0.06
6344 H 110.93277596304793 114.8994889738043 43.206146821954334 H 0.0 **** 0.06
6345 H 111.02103495043067 114.46691861784575 41.48140745176103 H 0.0 **** 0.06
6346 C 144.79223372291858 16.781811345364474 131.48248023739845 C 0.0 **** -0.24
6347 H 145.8134185507693 16.61697539074362 131.1375562787006 H 0.0 **** 0.06
6348 H 144.29789871086933 17.49653997471711 130.82435126427407 H 0.0 **** 0.06
6349 H 144.81135796636784 17.174856164752384 132.49872571668124 H 0.0 **** 0.06
6350 H 144.24820611745497 15.837145059825843 131.46818186928158 H 0.0 **** 0.06
6351 C 113.44970009490947 111.43141710485787 78.32418781962144 C 0.0 **** -0.24
6352 H 112.75006294979471 111.98076870483933 77.69423739210818 H 0.0 **** 0.06
6353 H 114.06868005573375 112.13628756332173 78.88017013116543 H 0.0 **** 0.06
6354 H 114.08431207010176 110.80283206132762 77.69925234394123 H 0.0 **** 0.06
6355 H 112.89382279531975 110.80624317681097 79.02279202587205 H 0.0 **** 0.06
6356 C 18.37425922670718 102.87275053759697 145.5813184543377 C 0.0 **** -0.24
6357 H 18.33685999268721 101.98630971561084 146.2148054974393 H 0.0 **** 0.06
6358 H 19.097684080340372 103.57936635175781 145.98788508296502 H 0.0 **** 0.06
6359 H 17.388488966663033 103.33801339084471 145.54948511300427 H 0.0 **** 0.06
6360 H 18.673187398624748 102.585017304328 144.57284365413858 H 0.0 **** 0.06
6361 C 64.55357736533925 106.81138836835368 102.60475012552479 C 0.0 **** -0.24
6362 H 64.97042909612028 106.2079154488209 101.79799306980186 H 0.0 **** 0.06
6363 H 63.46673275461745 106.82453762075673 102.52211387949947 H 0.0 **** 0.06
6364 H 64.93627261236632 107.82907368716249 102.53162846600998 H 0.0 **** 0.06
6365 H 64.84069345990375 106.38282199832986 103.56452355999477 H 0.0 **** 0.06
6366 C 10.373251822291529 139.83729813738205 56.86653041835041 C 0.0 **** -0.24
6367 H 10.64961298213857 138.7964705295521 57.03878109095544 H 0.0 **** 0.06
6368 H 10.869349001985093 140.47005648017586 57.6024953121935 H 0.0 **** 0.06
6369 H 9.292924375153746 139.9468886375185 56.96004179677806 H 0.0 **** 0.06
6370 H 10.683293977343666 140.13397575904833 55.86378660601454 H 0.0 **** 0.06
6371 C 84.3365254657657 95.58097699436976 19.805185534939255 C 0.0 **** -0.24
6372 H 83.74365872564994 95.1877322201591 18.979890796058953 H 0.0 **** 0.06
6373 H 84.56599620048897 96.63068051398372 19.62028670469806 H 0.0 **** 0.06
6374 H 85.26471179002431 95.0145289772965 19.88786371418462 H 0.0 **** 0.06
6375 H 83.772298698432 95.49037847197181 20.73328138840941 H 0.0 **** 0.06
6376 C 44.5085660514208 112.43929243560436 57.764940536787705 C 0.0 **** -0.24
6377 H 44.303519153783256 113.2898798340265 58.41570526505792 H 0.0 **** 0.06
6378 H 44.46270079310021 111.51930937154214 58.3476835286873 H 0.0 **** 0.06
6379 H 45.501425935139736 112.545943368091 57.33021346565667 H 0.0 **** 0.06
6380 H 43.76457384182346 112.40308213307773 56.968753824091976 H 0.0 **** 0.06
6381 C 21.77843859819137 91.50337156442728 1.752996056937036 C 0.0 **** -0.24
6382 H 21.586137394765558 92.3769569416445 2.375823232043274 H 0.0 **** 0.06
6383 H 22.82785468552879 91.49207641954084 1.4577348747721715 H 0.0 **** 0.06
6384 H 21.151717117028625 91.54691804667684 0.8621151714285133 H 0.0 **** 0.06
6385 H 21.548804901943384 90.59838072013868 2.3154698729070162 H 0.0 **** 0.06
6386 C 91.37706840985976 116.88800623378737 73.47137745559803 C 0.0 **** -0.24
6387 H 92.05286359988412 117.64681918456375 73.86469742135026 H 0.0 **** 0.06
6388 H 91.48758724928459 116.82970841484322 72.3881222524725 H 0.0 **** 0.06
6389 H 90.34922031703599 117.1544186918546 73.71816798162882 H 0.0 **** 0.06
6390 H 91.61793706903768 115.9216280651143 73.91502754180257 H 0.0 **** 0.06
6391 C 115.47827012157194 45.18617243713629 102.53493408797488 C 0.0 **** -0.24
6392 H 114.41656484816474 44.95548712947209 102.61809077393542 H 0.0 **** 0.06
6393 H 115.82834862307783 44.93012568304829 101.53366787199064 H 0.0 **** 0.06
6394 H 116.0347957021255 44.60857689770023 103.27312344830852 H 0.0 **** 0.06
6395 H 115.63430091762041 46.24994377618566 102.7135027777081 H 0.0 **** 0.06
6396 C 66.8355183164843 60.357486270219226 10.01768316109407 C 0.0 **** -0.24
6397 H 66.80490784326739 59.69457324572727 10.882106183797156 H 0.0 **** 0.06
6398 H 67.16926461130572 59.7990916026917 9.143361339553067 H 0.0 **** 0.06
6399 H 67.52866477485225 61.17597232463902 10.212160472409877 H 0.0 **** 0.06
6400 H 65.83986644847107 60.76102031520793 9.833413009855711 H 0.0 **** 0.06
6401 C 39.045765402426795 69.55169354690406 109.07938460626627 C 0.0 **** -0.24
6402 H 39.147732578879584 70.61456933093146 109.29953826323441 H 0.0 **** 0.06
6403 H 39.03186021212939 69.40443105060025 107.99917847891604 H 0.0 **** 0.06
6404 H 38.11649271627776 69.17834093833696 109.51029176101613 H 0.0 **** 0.06
6405 H 39.88835343199051 69.01004840625816 109.50938090141486 H 0.0 **** 0.06
6406 C 125.98004504593843 25.25067762228116 107.76096138990235 C 0.0 **** -0.24
6407 H 126.42313324623424 24.633412252874194 106.97931749867325 H 0.0 **** 0.06
6408 H 124.89403730094588 25.230971704912747 107.66594174716175 H 0.0 **** 0.06
6409 H 126.33597367941508 26.275121033051676 107.660257329178 H 0.0 **** 0.06
6410 H 126.2660020586315 24.86028360896978 108.73770135535813 H 0.0 **** 0.06
6411 C 128.73988289660733 100.35099974486516 94.16784295351121 C 0.0 **** -0.24
6412 H 127.70882457159922 100.64772586463121 94.36154172125677 H 0.0 **** 0.06
6413 H 129.26130763213206 100.20984558614893 95.11465582278221 H 0.0 **** 0.06
6414 H 129.23916850167927 101.13003079959208 93.59062081755854 H 0.0 **** 0.06
6415 H 128.74924877618736 99.41898550579882 93.60339847328554 H 0.0 **** 0.06
6416 C 61.31178501314028 56.97303578776436 116.61321495107188 C 0.0 **** -0.24
6417 H 60.58765831716994 56.15909478052782 116.57440221105702 H 0.0 **** 0.06
6418 H 61.49267892290527 57.248580568252976 117.65240037095373 H 0.0 **** 0.06
6419 H 60.92056527657576 57.83400873935824 116.07144512688694 H 0.0 **** 0.06
6420 H 62.24638194478388 56.64910991918319 116.15421332525682 H 0.0 **** 0.06
6421 C 4.953171231945504 151.91395475846622 101.64856735980499 C 0.0 **** -0.24
6422 H 4.243590802978474 152.10608614695073 100.84363071165956 H 0.0 **** 0.06
6423 H 5.888467961447958 152.43343578138675 101.440391120134 H 0.0 **** 0.06
6424 H 5.141300936359073 150.84213317627828 101.71886385600641 H 0.0 **** 0.06
6425 H 4.5392486526016285 152.2721921520236 102.59105763540379 H 0.0 **** 0.06
6426 C 51.81732069915505 66.20339957771115 73.24889041324832 C 0.0 **** -0.24
6427 H 52.3995536293249 65.85363075358515 74.10106611317275 H 0.0 **** 0.06
6428 H 52.49182467093739 66.48678935096657 72.43954033380788 H 0.0 **** 0.06
6429 H 51.22315481417935 67.06725040716479 73.5461402865975 H 0.0 **** 0.06
6430 H 51.15608798983796 65.40638481598285 72.90882625797008 H 0.0 **** 0.06
6431 C 84.79139103567309 5.527520386476965 160.62837904074377 C 0.0 **** -0.24
6432 H 84.80604950715406 5.3299725293051665 161.69951478520557 H 0.0 **** 0.06
6433 H 85.01852363458117 4.608448002330988 160.08685652578333 H 0.0 **** 0.06
6434 H 85.53709702383463 6.2850927692525715 160.38844675103138 H 0.0 **** 0.06
6435 H 83.8035787716465 5.884732521030287 160.33710720685863 H 0.0 **** 0.06
6436 C 85.45433605935224 116.57823747143846 30.829272484054457 C 0.0 **** -0.24
6437 H 85.74424842523862 115.54064923014408 30.989373271908363 H 0.0 **** 0.06
6438 H 86.09636195776199 117.02153374421042 30.067726009362474 H 0.0 **** 0.06
6439 H 85.56047645931363 117.13331570283066 31.761711892341708 H 0.0 **** 0.06
6440 H 84.41715073538865 116.61891900108259 30.498496979917576 H 0.0 **** 0.06
6441 C 48.22690790488137 95.60686943854138 13.08234917870113 C 0.0 **** -0.24
6442 H 48.65119041541854 94.67230325017076 13.44984374760405 H 0.0 **** 0.06
6443 H 48.30895892119459 96.37077650820522 13.856842262351279 H 0.0 **** 0.06
6444 H 47.17723539821337 95.45503710934831 12.83003897032431 H 0.0 **** 0.06
6445 H 48.771990109834874 95.92837284394851 12.195118209532112 H 0.0 **** 0.06
6446 C 47.49396262699048 97.38714726275563 111.01347092269751 C 0.0 **** -0.24
6447 H 47.2936492285736 98.45596856540539 110.94255968140251 H 0.0 **** 0.06
6448 H 47.11559673308983 97.00873025992237 111.96346918637116 H 0.0 **** 0.06
6449 H 48.56961197722802 97.2146226334487 110.95586324990396 H 0.0 **** 0.06
6450 H 46.99919198173666 96.86904146795118 110.19304591309967 H 0.0 **** 0.06
6451 C 120.847338550872 91.63091854586033 32.59535746904936 C 0.0 **** -0.24
6452 H 121.2160317079339 91.89882656413667 33.58525619654577 H 0.0 **** 0.06
6453 H 120.09290090103343 90.85005997076645 32.688031932035955 H 0.0 **** 0.06
6454 H 121.67433307852349 91.26804801294483 31.985645356164582 H 0.0 **** 0.06
6455 H 120.40517377294401 92.5090081240511 32.122628248736646 H 0.0 **** 0.06
6456 C 21.181628256059298 50.04466911819692 36.34999081101752 C 0.0 **** -0.24
6457 H 20.371377797558296 50.43459223897227 35.734351311096205 H 0.0 **** 0.06
6458 H 21.36159407039429 50.72224137378741 37.18480995877874 H 0.0 **** 0.06
6459 H 22.086078997014283 49.95976503582227 35.74717572685488 H 0.0 **** 0.06
6460 H 20.906271995562406 49.06116265432547 36.73169074856243 H 0.0 **** 0.06
6461 C 4.531725331512007 46.357916180590905 36.96323748976779 C 0.0 **** -0.24
6462 H 4.6151328585602585 45.30173824696084 36.706915007541184 H 0.0 **** 0.06
6463 H 3.489427386786332 46.59982254666596 37.17026683599738 H 0.0 **** 0.06
6464 H 4.8861570068451385 46.96366858316989 36.12989240062775 H 0.0 **** 0.06
6465 H 5.136034093903902 46.56566444323386 37.84649478338801 H 0.0 **** 0.06
6466 C 135.4737317430649 119.4528654963186 125.73268570675356 C 0.0 **** -0.24
6467 H 135.45529250781834 118.38043537741157 125.9259380838098 H 0.0 **** 0.06
6468 H 135.2421615134283 119.99124124253908 126.6524594188266 H 0.0 **** 0.06
6469 H 134.73345357768702 119.69710344570177 124.97191907539826 H 0.0 **** 0.06
6470 H 136.4647707657115 119.74134922711133 125.38233923649534 H 0.0 **** 0.06
6471 C 90.35248747834822 101.29723272642173 71.49798601416563 C 0.0 **** -0.24
6472 H 90.64579309542063 102.34141115418763 71.61059200643484 H 0.0 **** 0.06
6473 H 89.35125522552403 101.15529364619582 71.9060266490652 H 0.0 **** 0.06
6474 H 91.05722909358968 100.66290268935691 72.03477041006906 H 0.0 **** 0.06
6475 H 90.35581131565277 101.03175684925978 70.44079853428578 H 0.0 **** 0.06
6476 C 148.5046153919299 56.49444736135732 68.95371754765156 C 0.0 **** -0.24
6477 H 149.42637055701476 56.05356518686537 68.57381731501948 H 0.0 **** 0.06
6478 H 148.47070784654144 57.5511288100889 68.6882228141449 H 0.0 **** 0.06
6479 H 148.47376502313926 56.39016908004572 70.03857568125022 H 0.0 **** 0.06
6480 H 147.64816497423374 55.98135373876522 68.51473176883954 H 0.0 **** 0.06
6481 C 130.40397166510226 108.52512802862492 62.4665297780717 C 0.0 **** -0.24
6482 H 129.3673178934667 108.61815791054539 62.141855674787266 H 0.0 **** 0.06
6483 H 131.06591673617908 108.84851100582284 61.663374737060664 H 0.0 **** 0.06
6484 H 130.6143604210867 107.48566762781991 62.7162225328922 H 0.0 **** 0.06
6485 H 130.56624217285824 109.15020470259117 63.34549242570212 H 0.0 **** 0.06
6486 C 42.12926820554665 22.92361987300353 56.01025398736026 C 0.0 **** -0.24
6487 H 42.06890504632611 21.993960141290557 56.57601535487274 H 0.0 **** 0.06
6488 H 41.144324633208015 23.1693582871944 55.61004438668792 H 0.0 **** 0.06
6489 H 42.836350824269914 22.805501129032848 55.18976939964848 H 0.0 **** 0.06
6490 H 42.46440338078156 23.727071986500476 56.66675683885447 H 0.0 **** 0.06
6491 C 15.773278271240862 132.46673563173778 49.78791054826522 C 0.0 **** -0.24
6492 H 15.403251707534466 133.24145812753522 50.459274268441376 H 0.0 **** 0.06
6493 H 16.016754598223542 132.91035789614364 48.821401114993876 H 0.0 **** 0.06
6494 H 15.005847939654643 131.70414488176655 49.65435944568928 H 0.0 **** 0.06
6495 H 16.667413075980868 132.0128454914348 50.21538165968539 H 0.0 **** 0.06
6496 C 30.11267715317632 32.49188971728013 33.21828040362226 C 0.0 **** -0.24
6497 H 29.70867116185849 31.725714459606145 33.878736639483634 H 0.0 **** 0.06
6498 H 30.13087840598604 32.11746539785287 32.19478003792045 H 0.0 **** 0.06
6499 H 31.126010573969324 32.74354530145081 33.53072670618195 H 0.0 **** 0.06
6500 H 29.486077022569646 33.38189934053757 33.2689260236574 H 0.0 **** 0.06
6501 C 72.39505411947243 105.61411152025477 116.23995318583923 C 0.0 **** -0.24
6502 H 72.74468982360735 106.2884804352683 115.45865984994282 H 0.0 **** 0.06
6503 H 73.25104996463178 105.14360794576058 116.72413328493849 H 0.0 **** 0.06
6504 H 71.76056779774693 104.84532900277466 115.798168821574 H 0.0 **** 0.06
6505 H 71.8231983741714 106.17756490148307 116.97701976322969 H 0.0 **** 0.06
6506 C 72.62679614506567 30.655385019322466 28.126587206239094 C 0.0 **** -0.24
6507 H 72.92334775772343 29.60853536727805 28.19709837045957 H 0.0 **** 0.06
6508 H 73.43132649336894 31.285904348630282 28.50739582267107 H 0.0 **** 0.06
6509 H 71.72600613963243 30.818510731731124 28.716888972524828 H 0.0 **** 0.06
6510 H 72.42985467829084 30.90695723839235 27.084634077610076 H 0.0 **** 0.06
6511 C 24.105372430583657 88.8322655604132 71.86072085787407 C 0.0 **** -0.24
6512 H 25.16675336624769 88.63821807089198 71.70192231782545 H 0.0 **** 0.06
6513 H 23.51712893301118 88.1854640433378 71.21014632200138 H 0.0 **** 0.06
6514 H 23.88867009479435 89.8750223249727 71.63059207187399 H 0.0 **** 0.06
6515 H 23.851819178741493 88.6289966799262 72.90114066063171 H 0.0 **** 0.06
6516 C 65.8164597716285 56.13260501675393 151.0091450053123 C 0.0 **** -0.24
6517 H 65.67793346901817 55.070207074493894 151.20769955084137 H 0.0 **** 0.06
6518 H 66.72378305018458 56.478904297395275 151.50667009053024 H 0.0 **** 0.06
6519 H 64.95966625989593 56.688122561029274 151.38821616022165 H 0.0 **** 0.06
6520 H 65.90734311651818 56.292789685262164 149.93470796551156 H 0.0 **** 0.06
6521 C 58.00411309168396 17.23858242906801 147.30626906845208 C 0.0 **** -0.24
6522 H 58.19397814195179 17.965243876473934 148.09557460426598 H 0.0 **** 0.06
6523 H 58.92227707776476 16.693208097398575 147.08761273088385 H 0.0 **** 0.06
6524 H 57.66747000914728 17.757480659133492 146.40865783668903 H 0.0 **** 0.06
6525 H 57.234631499179784 16.53988381302755 147.63282709243293 H 0.0 **** 0.06
6526 C 115.3139555619625 57.36303203918783 114.86175462310965 C 0.0 **** -0.24
6527 H 115.01832052427267 56.31634595992588 114.94100779971191 H 0.0 **** 0.06
6528 H 115.10672838311277 57.72282889437125 113.85354036060536 H 0.0 **** 0.06
6529 H 116.38008767096468 57.45503366009984 115.06900056956883 H 0.0 **** 0.06
6530 H 114.7497128876532 57.95467507322064 115.58274393283727 H 0.0 **** 0.06
6531 C 24.614862407103374 50.71318401968895 154.8802521872184 C 0.0 **** -0.24
6532 H 24.170818335439236 51.02453109675022 153.9345917172323 H 0.0 **** 0.06
6533 H 23.99705107139303 49.9365966771192 155.33292332242814 H 0.0 **** 0.06
6534 H 24.672892746917626 51.5694644566655 155.55254242407477 H 0.0 **** 0.06
6535 H 25.61581402758938 50.32325030250985 154.69971864861463 H 0.0 **** 0.06
6536 C 128.36374801309148 50.88564500487989 69.51550889600009 C 0.0 **** -0.24
6537 H 127.57182221030047 51.40965089010237 68.97797723321537 H 0.0 **** 0.06
6538 H 128.33637323091747 51.16818092997552 70.56776548054529 H 0.0 **** 0.06
6539 H 129.3305419993249 51.15557467178263 69.09029221376181 H 0.0 **** 0.06
6540 H 128.21365790108624 49.81035580660871 69.42357996807304 H 0.0 **** 0.06
6541 C 44.71853440851308 119.77095482270491 20.434587267078975 C 0.0 **** -0.24
6542 H 45.610231559886415 120.22187255117592 20.87079280018692 H 0.0 **** 0.06
6543 H 44.54086682405598 120.19973154959905 19.448446000623008 H 0.0 **** 0.06
6544 H 43.86021097736452 119.96920212209093 21.077409004500062 H 0.0 **** 0.06
6545 H 44.86397433725925 118.69468991315108 20.342636611719165 H 0.0 **** 0.06
6546 C 112.13010462397361 86.17148418153634 23.68695965873499 C 0.0 **** -0.24
6547 H 112.63463573166604 85.5881897118175 24.45744962559735 H 0.0 **** 0.06
6548 H 111.65627746623946 87.04110572534894 24.142330992353948 H 0.0 **** 0.06
6549 H 111.37186957708465 85.55485668447295 23.203543666305563 H 0.0 **** 0.06
6550 H 112.85879170067662 86.50006402716635 22.94535308501858 H 0.0 **** 0.06
6551 C 5.776133832867643 16.75034059010507 59.97474116797224 C 0.0 **** -0.24
6552 H 6.693796189300592 16.95580808606646 59.42482870036599 H 0.0 **** 0.06
6553 H 5.203644899325994 15.982020616282163 59.45394492135745 H 0.0 **** 0.06
6554 H 5.182327498979156 17.661770638795943 60.042705532779905 H 0.0 **** 0.06
6555 H 6.022566084142561 16.401769962192596 60.97788200128605 H 0.0 **** 0.06
6556 C 76.69159956824399 88.51246199854282 153.59811823299663 C 0.0 **** -0.24
6557 H 77.66424213714214 88.05771092835275 153.4060822942888 H 0.0 **** 0.06
6558 H 76.13155487248287 88.579449594351 152.66482916268313 H 0.0 **** 0.06
6559 H 76.83276293654774 89.51133936902478 154.01093630198812 H 0.0 **** 0.06
6560 H 76.13913126066984 87.89883447559532 154.31052396270235 H 0.0 **** 0.06
6561 C 1.372919598671558 61.301820143929376 6.2913333369569955 C 0.0 **** -0.24
6562 H 0.9435907862193531 62.252658152494405 6.608635619005838 H 0.0 **** 0.06
6563 H 2.4323941127034203 61.43602414771641 6.0760803299551185 H 0.0 **** 0.06
6564 H 0.8608672408632358 60.955650078893484 5.393618170848271 H 0.0 **** 0.06
6565 H 1.2521151390865768 60.56575483650573 7.085667636257 H 0.0 **** 0.06
6566 C 59.48363980254193 73.63480877323694 101.2400050549885 C 0.0 **** -0.24
6567 H 58.60859442084086 74.2596377584325 101.05790011103437 H 0.0 **** 0.06
6568 H 59.92152635404446 73.33699584688006 100.28750588310857 H 0.0 **** 0.06
6569 H 59.18563741543184 72.746091185659 101.79591554184299 H 0.0 **** 0.06
6570 H 60.21729913342675 74.19699698880717 101.81798624896126 H 0.0 **** 0.06
6571 C 25.607860324156917 75.73408871848217 98.91823914298624 C 0.0 **** -0.24
6572 H 24.54610065296717 75.98234553138678 98.90844933591501 H 0.0 **** 0.06
6573 H 25.870473463133976 75.22637898630173 97.98987604710038 H 0.0 **** 0.06
6574 H 25.82035299510119 75.08111262900078 99.76391869523846 H 0.0 **** 0.06
6575 H 26.1919466029984 76.64944481246096 99.0093559518939 H 0.0 **** 0.06
6576 C 23.936479535990408 106.37766326766328 103.91000254978962 C 0.0 **** -0.24
6577 H 23.674680294841167 107.30494831003162 104.41884775201788 H 0.0 **** 0.06
6578 H 25.008660267940698 106.36171231369849 103.71525427516985 H 0.0 **** 0.06
6579 H 23.39421589735789 106.31651044957997 102.9665682237279 H 0.0 **** 0.06
6580 H 23.66748362704564 105.52974066748524 104.53969716885541 H 0.0 **** 0.06
6581 C 5.410500527983515 135.54272467830978 142.42215301796816 C 0.0 **** -0.24
6582 H 4.647361596138239 134.82506759604837 142.12076100854108 H 0.0 **** 0.06
6583 H 5.659386186162294 136.184843459076 141.5769067375587 H 0.0 **** 0.06
6584 H 6.301913462056888 135.00861836388253 142.75005888988636 H 0.0 **** 0.06
6585 H 5.031199424727731 136.15299443108566 143.24289135165262 H 0.0 **** 0.06
6586 C 97.55111479155971 14.195791785377082 40.131323245899026 C 0.0 **** -0.24
6587 H 98.17926394573703 15.067762711897728 39.95065453658036 H 0.0 **** 0.06
6588 H 96.526818495351 14.519410301203436 40.32174927410547 H 0.0 **** 0.06
6589 H 97.92662848714463 13.649621740200416 40.9966096724627 H 0.0 **** 0.06
6590 H 97.57050581018711 13.5462379656488 39.25561740978115 H 0.0 **** 0.06
6591 C 13.401352226343988 152.79291308017613 37.700687603783535 C 0.0 **** -0.24
6592 H 12.557879129308304 152.1019294879748 37.70847810178964 H 0.0 **** 0.06
6593 H 14.28768077528084 152.27938190047382 37.326992123436355 H 0.0 **** 0.06
6594 H 13.588552843159164 153.1487433010296 38.71353439440111 H 0.0 **** 0.06
6595 H 13.172256131807707 153.63959829423496 37.05403084299269 H 0.0 **** 0.06
6596 C 156.4633006302612 31.489333726751113 134.88233696463553 C 0.0 **** -0.24
6597 H 155.7368175484018 30.744187473020304 135.20599455894285 H 0.0 **** 0.06
6598 H 155.94015021780353 32.384596561999786 134.54627155690952 H 0.0 **** 0.06
6599 H 157.05608247557842 31.083959497936974 134.0615188877214 H 0.0 **** 0.06
6600 H 157.1204174971722 31.741670701845806 135.7149307118109 H 0.0 **** 0.06
6601 C 74.39727558255275 39.34791458355613 62.34233494430677 C 0.0 **** -0.24
6602 H 74.9127770660294 39.96835089980311 63.0751526855845 H 0.0 **** 0.06
6603 H 74.51835009100114 38.29736302892519 62.60721843152774 H 0.0 **** 0.06
6604 H 74.8216349737988 39.52542377719806 61.353754915861 H 0.0 **** 0.06
6605 H 73.33764433552523 39.60066855622199 62.33374043829032 H 0.0 **** 0.06
6606 C 23.449195179552646 44.9106906492989 117.74084715115461 C 0.0 **** -0.24
6607 H 23.833771765142217 45.21210051691175 116.76671226066716 H 0.0 **** 0.06
6608 H 23.38786092207792 43.823480137727955 117.78758326560987 H 0.0 **** 0.06
6609 H 22.456497880097174 45.33718658991873 117.88586490346756 H 0.0 **** 0.06
6610 H 24.117432121659192 45.271784854573596 118.52266760507098 H 0.0 **** 0.06
6611 C 68.50186694448418 73.15958662047439 107.7966171457567 C 0.0 **** -0.24
6612 H 68.6739500974275 73.50704176009248 106.77766317942405 H 0.0 **** 0.06
6613 H 69.22896228385311 72.38562185695656 108.04393231086894 H 0.0 **** 0.06
6614 H 67.49504172153264 72.75098091475155 107.87585834941646 H 0.0 **** 0.06
6615 H 68.6107438140894 73.99453508493565 108.48833726674724 H 0.0 **** 0.06
6616 C 144.80493778753447 20.315161331187376 84.79325740010155 C 0.0 **** -0.24
6617 H 144.14255058589063 20.607516307852244 83.97853314266375 H 0.0 **** 0.06
6618 H 145.68093235407736 20.96375325861328 84.7998061655576 H 0.0 **** 0.06
6619 H 145.1186793562465 19.28078091377016 84.65275744822905 H 0.0 **** 0.06
6620 H 144.27608041181162 20.409442615678103 85.74201015494098 H 0.0 **** 0.06
6621 C 151.38108687206918 47.98055305992345 128.89520981191532 C 0.0 **** -0.24
6622 H 151.20669590672026 47.19909470471096 128.15456513819572 H 0.0 **** 0.06
6623 H 150.52343809703586 48.04392422329775 129.56449189934133 H 0.0 **** 0.06
6624 H 151.5184635978566 48.935687860981034 128.38796331016079 H 0.0 **** 0.06
6625 H 152.27543258032807 47.74243638229382 129.47024722921378 H 0.0 **** 0.06
6626 C 67.8452660151948 149.72717278909846 115.22862548614717 C 0.0 **** -0.24
6627 H 68.0443346601471 150.2491396795991 116.16483492303621 H 0.0 **** 0.06
6628 H 68.4782961561329 148.84143443274039 115.16493641897455 H 0.0 **** 0.06
6629 H 68.06086994015716 150.38940288379607 114.39044645437536 H 0.0 **** 0.06
6630 H 66.79781216005793 149.42851228705732 115.19523143286062 H 0.0 **** 0.06
6631 C 34.66837381093748 20.919573397587754 12.826354981256614 C 0.0 **** -0.24
6632 H 34.99251860489056 20.18769843199656 12.08762499484633 H 0.0 **** 0.06
6633 H 35.33932916690591 20.89078675572948 13.685747289576526 H 0.0 **** 0.06
6634 H 33.65373112644576 20.685543037026676 13.148205663526085 H 0.0 **** 0.06
6635 H 34.68836275495818 21.91512037213444 12.383577945628815 H 0.0 **** 0.06
6636 C 52.48416446336394 6.277859823601233 143.81693723399644 C 0.0 **** -0.24
6637 H 53.167465037728036 5.433256659991599 143.89675347555266 H 0.0 **** 0.06
6638 H 52.59508986664895 6.918662572115409 144.69238185562742 H 0.0 **** 0.06
6639 H 51.45924219560527 5.9128272609831924 143.76052453319497 H 0.0 **** 0.06
6640 H 52.71580465560507 6.848272857987922 142.91730639006926 H 0.0 **** 0.06
6641 C 153.88458489606484 119.59792616695611 66.23738179970121 C 0.0 **** -0.24
6642 H 154.56548990422087 118.81019253855678 66.56154840933185 H 0.0 **** 0.06
6643 H 153.42639305319992 120.06384828733724 67.1098642770071 H 0.0 **** 0.06
6644 H 153.1088104249076 119.16914515236908 65.60289801601192 H 0.0 **** 0.06
6645 H 154.4403941703397 120.34785132936014 65.67421471224228 H 0.0 **** 0.06
6646 C 139.40075269515086 136.87239176277092 118.90256780251175 C 0.0 **** -0.24
6647 H 139.16793259068544 136.2517886718568 119.76745417462848 H 0.0 **** 0.06
6648 H 138.88652145414517 136.4807749174573 118.02511733580764 H 0.0 **** 0.06
6649 H 140.47746399057735 136.86153484240987 118.72729421303589 H 0.0 **** 0.06
6650 H 139.07391431307565 137.89454083189247 119.0908276675016 H 0.0 **** 0.06
6651 C 94.10722886224687 83.80576226753462 105.94389731406966 C 0.0 **** -0.24
6652 H 94.58276515380479 83.14269334789529 106.66643291291768 H 0.0 **** 0.06
6653 H 93.67822921316018 84.66269887429347 106.46474360239154 H 0.0 **** 0.06
6654 H 93.31770357526646 83.26593983013396 105.42072102985776 H 0.0 **** 0.06
6655 H 94.8492810307128 84.15192067443809 105.22397731009698 H 0.0 **** 0.06
6656 C 159.45370593368298 119.02700251529564 70.35479679539645 C 0.0 **** -0.24
6657 H 160.01556808012262 118.13198851742038 70.62203775326782 H 0.0 **** 0.06
6658 H 159.8760869860453 119.88848293434091 70.87252124423344 H 0.0 **** 0.06
6659 H 158.41160236572784 118.90184053624165 70.64716549937617 H 0.0 **** 0.06
6660 H 159.51279195844654 119.18382787422809 69.27744609830108 H 0.0 **** 0.06
6661 C 17.881272512079192 69.64955753210745 7.523497352138378 C 0.0 **** -0.24
6662 H 18.101753109797215 68.70865058234833 7.019788845281511 H 0.0 **** 0.06
6663 H 18.814576338602365 70.1322872072783 7.813664354754394 H 0.0 **** 0.06
6664 H 17.28137494849139 69.45391758891724 8.41287118410942 H 0.0 **** 0.06
6665 H 17.328001772791453 70.30250782079081 6.848597166439653 H 0.0 **** 0.06
6666 C 144.68524172859674 101.01384878540193 122.7481923019817 C 0.0 **** -0.24
6667 H 145.4555171374272 101.7264926589391 123.04042562350051 H 0.0 **** 0.06
6668 H 144.64522434558938 100.20370917383582 123.4761842446778 H 0.0 **** 0.06
6669 H 144.9205762624474 100.60825309891516 121.76396485518558 H 0.0 **** 0.06
6670 H 143.71965702352833 101.51866762399538 122.71206771923477 H 0.0 **** 0.06
6671 C 0.15059206942748915 114.20438044507341 62.99686814713277 C 0.0 **** -0.24
6672 H -0.8714154160583121 113.85230972457109 62.85642682295254 H 0.0 **** 0.06
6673 H 0.13520313591811828 115.17927202228677 63.48339710509761 H 0.0 **** 0.06
6674 H 0.6407424250388658 114.29020361397554 62.027009460206685 H 0.0 **** 0.06
6675 H 0.6960162011208695 113.49483606835943 63.61927167919902 H 0.0 **** 0.06
6676 C 133.76778961887922 80.26416725312423 51.91790137466846 C 0.0 **** -0.24
6677 H 133.31325149284913 79.80646836982406 51.039605489530786 H 0.0 **** 0.06
6678 H 134.6246304450003 79.66999113583056 52.23521571476864 H 0.0 **** 0.06
6679 H 133.0356244053955 80.30706427250887 52.72399305019661 H 0.0 **** 0.06
6680 H 134.0961587247005 81.27382752640581 51.67223960852489 H 0.0 **** 0.06
6681 C 150.03024735139456 114.21259774650343 41.704151721822896 C 0.0 **** -0.24
6682 H 150.45288667318346 113.62182279931756 40.8917535392126 H 0.0 **** 0.06
6683 H 150.12565335903014 113.66355878082882 42.64151813735856 H 0.0 **** 0.06
6684 H 148.9764706752193 114.40612269586222 41.50111306194111 H 0.0 **** 0.06
6685 H 150.56437699887874 115.15943938189321 41.78076294894913 H 0.0 **** 0.06
6686 C 61.60978374553815 8.211802847227801 47.16725505519335 C 0.0 **** -0.24
6687 H 62.35632125317392 8.409527913027887 46.39827885727857 H 0.0 **** 0.06
6688 H 60.71930556959376 7.783555344405528 46.70642583653364 H 0.0 **** 0.06
6689 H 61.347980231572706 9.144017620310734 47.6671314128059 H 0.0 **** 0.06
6690 H 62.015703847772045 7.51000118144421 47.896205784272524 H 0.0 **** 0.06
6691 C 125.65573966617353 84.65528948834924 18.5716102986093 C 0.0 **** -0.24
6692 H 125.00113822963885 83.7919014358423 18.686692262132624 H 0.0 **** 0.06
6693 H 125.33144979227552 85.24675341196345 17.715257936774606 H 0.0 **** 0.06
6694 H 126.6800368172685 84.31569950556889 18.411798207632614 H 0.0 **** 0.06
6695 H 125.61326865107503 85.26662101185886 19.47328754170627 H 0.0 **** 0.06
6696 C 99.24203577112795 121.09393541066001 19.71901361946371 C 0.0 **** -0.24
6697 H 98.87500655359753 120.09051833204427 19.50050134979452 H 0.0 **** 0.06
6698 H 100.3320585122 121.08515369900874 19.73454334677271 H 0.0 **** 0.06
6699 H 98.86627939217624 121.41467166283519 20.690287646747663 H 0.0 **** 0.06
6700 H 98.89549041339782 121.78304616239984 18.948488110396 H 0.0 **** 0.06
6701 C 63.869012107156806 114.4896285723164 74.38747359896794 C 0.0 **** -0.24
6702 H 64.56320367464735 115.30967043078599 74.20548663402217 H 0.0 **** 0.06
6703 H 63.88616490277616 114.2271025301059 75.44525226906042 H 0.0 **** 0.06
6704 H 64.16506394113102 113.62475043863134 73.79368577012069 H 0.0 **** 0.06
6705 H 62.86223113013591 114.79670125612586 74.10473647862868 H 0.0 **** 0.06
6706 C 127.00152090036963 126.70798377015444 56.783740276541096 C 0.0 **** -0.24
6707 H 125.93556112464927 126.7538894569829 56.55818692350135 H 0.0 **** 0.06
6708 H 127.14344678882836 126.69869570614435 57.86454120073395 H 0.0 **** 0.06
6709 H 127.4995421620728 127.57979188609693 56.35823667052756 H 0.0 **** 0.06
6710 H 127.42468264528307 125.80095303845411 56.353033624105706 H 0.0 **** 0.06
6711 C 46.72037096336955 6.217968879840214 12.846211662308939 C 0.0 **** -0.24
6712 H 45.90456928498136 6.627161397318957 13.443806023957997 H 0.0 **** 0.06
6713 H 47.12812909069193 5.337810886774548 13.34325096604043 H 0.0 **** 0.06
6714 H 47.50224517014652 6.969572767187827 12.737873426648406 H 0.0 **** 0.06
6715 H 46.345119288342644 5.939946975794356 11.862182289517463 H 0.0 **** 0.06
6716 C 156.76570410677698 105.15058623266162 24.531978012852875 C 0.0 **** -0.24
6717 H 155.9341186463543 104.54019485651611 24.88438807508993 H 0.0 **** 0.06
6718 H 157.68051140708718 104.55645808458291 24.540595331368365 H 0.0 **** 0.06
6719 H 156.8854820260109 106.01286485392876 25.186741053590083 H 0.0 **** 0.06
6720 H 156.56263836883073 105.48986968303842 23.516686983643666 H 0.0 **** 0.06
6721 C 92.80358809531569 135.94421445521158 63.270458545073325 C 0.0 **** -0.24
6722 H 93.06776375015335 136.0225412247776 64.32517225210131 H 0.0 **** 0.06
6723 H 93.20753262158281 136.80088175533209 62.730458703369436 H 0.0 **** 0.06
6724 H 91.71862904532665 135.92955099219694 63.168882536439924 H 0.0 **** 0.06
6725 H 93.22005665644353 135.0250173623032 62.85921229341909 H 0.0 **** 0.06
6726 C 24.329986280926114 17.867577412613116 93.3076958003556 C 0.0 **** -0.24
6727 H 24.314791852059315 18.14726467864898 92.25425191414041 H 0.0 **** 0.06
6728 H 24.95238274879769 16.981780313719526 93.43965046010217 H 0.0 **** 0.06
6729 H 23.314829297972544 17.652091858380004 93.64105016406685 H 0.0 **** 0.06
6730 H 24.73874452909152 18.68945228467203 93.89530471571236 H 0.0 **** 0.06
6731 C 30.995516550137722 66.80328688519204 131.64877198007443 C 0.0 **** -0.24
6732 H 31.79315822492549 67.45503421553305 132.00556749323346 H 0.0 **** 0.06
6733 H 31.42598842549313 65.8794276841392 131.26346304895708 H 0.0 **** 0.06
6734 H 30.443763399336603 67.30713839733012 130.855826244997 H 0.0 **** 0.06
6735 H 30.318326557850412 66.57394855279883 132.47236322655402 H 0.0 **** 0.06
6736 C 97.03147848073536 149.80743680769967 70.42844766967568 C 0.0 **** -0.24
6737 H 96.56889310185352 149.17301741370926 69.67306920524506 H 0.0 **** 0.06
6738 H 97.29011291029815 149.2049465248499 71.29950367395921 H 0.0 **** 0.06
6739 H 96.33167270165166 150.59040628753456 70.72318580348764 H 0.0 **** 0.06
6740 H 97.93346245382799 150.26237611379986 70.01895896447218 H 0.0 **** 0.06
6741 C 51.84839075019542 31.487363138796347 114.03716502429839 C 0.0 **** -0.24
6742 H 52.52806938144403 31.102582987191063 113.27652643483543 H 0.0 **** 0.06
6743 H 52.26746459956773 32.39469048876199 114.47382174063554 H 0.0 **** 0.06
6744 H 51.712896438306444 30.737232814388108 114.81663064856306 H 0.0 **** 0.06
6745 H 50.884975375876195 31.715469391321328 113.58084362450293 H 0.0 **** 0.06
6746 C 159.7240378172882 29.766384251709432 80.34201288910481 C 0.0 **** -0.24
6747 H 159.94750046163938 29.985379407289678 79.29800598464783 H 0.0 **** 0.06
6748 H 158.64993923209454 29.624286867208347 80.46145500826196 H 0.0 **** 0.06
6749 H 160.05232468721476 30.59709522700424 80.96605041804668 H 0.0 **** 0.06
6750 H 160.24659458738654 28.85755414627802 80.64185808720833 H 0.0 **** 0.06
6751 C 66.47254131285321 113.78405678336625 79.07093843834264 C 0.0 **** -0.24
6752 H 66.43988554475543 113.26699608390382 78.11148874412503 H 0.0 **** 0.06
6753 H 66.03300818152839 113.14810680322805 79.83991251495995 H 0.0 **** 0.06
6754 H 65.90863371760742 114.71413189295282 79.00192857561042 H 0.0 **** 0.06
6755 H 67.50766277246517 114.00421047303774 79.32986649601968 H 0.0 **** 0.06
6756 C 9.369694557041043 148.02110491470273 134.68594269130847 C 0.0 **** -0.24
6757 H 9.083125459331143 147.36567885826042 133.86352449360268 H 0.0 **** 0.06
6758 H 10.055766480679381 148.78446295543117 134.31927299559524 H 0.0 **** 0.06
6759 H 9.85970138661321 147.43475505930238 135.4632663119714 H 0.0 **** 0.06
6760 H 8.480186075400809 148.49839595822368 135.09685237728905 H 0.0 **** 0.06
6761 C 150.28885574547604 5.955511909154467 124.193310900634 C 0.0 **** -0.24
6762 H 150.62534910426132 5.437790357552728 123.2955818532023 H 0.0 **** 0.06
6763 H 150.09261278234823 5.226986093235979 124.98106196696074 H 0.0 **** 0.06
6764 H 149.37517260248796 6.507430649788461 123.97308676784382 H 0.0 **** 0.06
6765 H 151.06205382195253 6.649382962269669 124.5243706776414 H 0.0 **** 0.06
6766 C 102.30511785090525 149.83194149939618 76.63898218342399 C 0.0 **** -0.24
6767 H 101.32907293114872 149.49097195711153 76.98711721859439 H 0.0 **** 0.06
6768 H 102.89197443648578 150.17984663023014 77.4891652391623 H 0.0 **** 0.06
6769 H 102.17311617058232 150.64852594056657 75.92904467415012 H 0.0 **** 0.06
6770 H 102.82464315209728 149.00726756383324 76.15154890417551 H 0.0 **** 0.06
6771 C 16.960330724521214 114.89211580185588 157.23175410467042 C 0.0 **** -0.24
6772 H 17.07849949998294 114.25743810258115 156.35295876820675 H 0.0 **** 0.06
6773 H 15.927586479314868 115.23439743317613 157.29664215827793 H 0.0 **** 0.06
6774 H 17.625005275340868 115.75245636479843 157.14979843956087 H 0.0 **** 0.06
6775 H 17.21185320349349 114.3225742264732 158.12671148192845 H 0.0 **** 0.06
6776 C 72.0454535436508 83.48192462345224 65.00031188738812 C 0.0 **** -0.24
6777 H 73.04347460226141 83.09029448643497 64.801611906535 H 0.0 **** 0.06
6778 H 71.44630149608139 82.71535189911282 65.49262476032523 H 0.0 **** 0.06
6779 H 71.57301250460334 83.76405621461146 64.05905150579768 H 0.0 **** 0.06
6780 H 72.12059909693811 84.35565336318143 65.64621670619266 H 0.0 **** 0.06
6781 C 134.59353531137063 111.89280375307385 122.20701518926276 C 0.0 **** -0.24
6782 H 135.53964658037887 112.36810487623745 122.46672305680283 H 0.0 **** 0.06
6783 H 134.50918235505011 111.82136258523553 121.12218634400614 H 0.0 **** 0.06
6784 H 133.76866107510884 112.48955793834006 122.59775401003208 H 0.0 **** 0.06
6785 H 134.55798383486905 110.89392568373773 122.64185602358853 H 0.0 **** 0.06
6786 C 16.024208473079156 161.86052017372285 9.714496732923749 C 0.0 **** -0.24
6787 H 16.620904819440042 162.15883915977238 10.57657800079349 H 0.0 **** 0.06
6788 H 16.514703263869627 162.19464335440438 8.799821140726067 H 0.0 **** 0.06
6789 H 15.034649565242617 162.31256261122974 9.783610160533726 H 0.0 **** 0.06
6790 H 15.92678627369834 160.77490314303463 9.698798335509593 H 0.0 **** 0.06
6791 C 100.04334437653108 33.488238919437435 45.10289067681373 C 0.0 **** -0.24
6792 H 98.98022691025307 33.598744623625976 44.88639440820805 H 0.0 **** 0.06
6793 H 100.62391191985856 34.02459796621122 44.351206430080765 H 0.0 **** 0.06
6794 H 100.30974540671787 32.43140025292257 45.082731672243426 H 0.0 **** 0.06
6795 H 100.25657399666855 33.898821829282724 46.089778540680356 H 0.0 **** 0.06
6796 C 161.34298350017048 94.12678888744595 73.33745244586369 C 0.0 **** -0.24
6797 H 160.49944404026564 94.80789842206065 73.2282562190903 H 0.0 **** 0.06
6798 H 162.06649627659635 94.55399303447989 74.03193768004579 H 0.0 **** 0.06
6799 H 161.81506953551883 93.97633895119657 72.36695029446503 H 0.0 **** 0.06
6800 H 160.9898024690466 93.17106875489993 73.72228226144745 H 0.0 **** 0.06
6801 C 36.3923875706644 18.19503000277507 38.01614846874395 C 0.0 **** -0.24
6802 H 36.83719525557568 17.80464859401269 38.93203566986881 H 0.0 **** 0.06
6803 H 36.227141012439546 19.267160071795274 38.12162614291276 H 0.0 **** 0.06
6804 H 35.43972047608433 17.696575848100053 37.834790416160104 H 0.0 **** 0.06
6805 H 37.06399159437544 18.010392669916655 37.17836453833951 H 0.0 **** 0.06
6806 C 57.65607429524134 135.34034300970927 74.60744084736959 C 0.0 **** -0.24
6807 H 57.43505965853636 135.14436147817992 75.65701249730357 H 0.0 **** 0.06
6808 H 57.102924700316976 136.22108004200697 74.27915179480435 H 0.0 **** 0.06
6809 H 57.36001332972245 134.47996523531742 74.00768103611311 H 0.0 **** 0.06
6810 H 58.72473346407938 135.51701146950015 74.48825329603247 H 0.0 **** 0.06
6811 C 82.51533117025176 31.977439871873855 8.517521180225287 C 0.0 **** -0.24
6812 H 83.00708976708125 31.622626223071677 9.422732527668792 H 0.0 **** 0.06
6813 H 82.16042175806962 32.99694551373426 8.673288496919298 H 0.0 **** 0.06
6814 H 81.67010608225173 31.3296354670357 8.285071488478344 H 0.0 **** 0.06
6815 H 83.22387845829195 31.96241430653521 7.689701868880228 H 0.0 **** 0.06
6816 C 59.06060808454873 72.59694176448349 68.14373436306954 C 0.0 **** -0.24
6817 H 58.73541794053472 71.9551308421663 67.32537995075326 H 0.0 **** 0.06
6818 H 58.24461730581754 73.26031578518645 68.43124232402677 H 0.0 **** 0.06
6819 H 59.91552335967771 73.19105031573702 67.82129406029323 H 0.0 **** 0.06
6820 H 59.34687373216474 71.98127011484421 68.99702111720468 H 0.0 **** 0.06
6821 C 144.25220717482048 44.03720153174916 125.92258782038823 C 0.0 **** -0.24
6822 H 144.46805795363224 42.968604129406884 125.89601862828283 H 0.0 **** 0.06
6823 H 144.7731207035925 44.491989208183 126.76524084814065 H 0.0 **** 0.06
6824 H 143.17798375446603 44.18707536166575 126.03550711177976 H 0.0 **** 0.06
6825 H 144.58699385523474 44.499222305623505 124.99402143647367 H 0.0 **** 0.06
6826 C 48.723698813851826 73.07566736765398 1.5082654068918941 C 0.0 **** -0.24
6827 H 48.838906581677165 72.2571223236769 0.7975340603550478 H 0.0 **** 0.06
6828 H 49.64438595170472 73.65956072868917 1.5409095504735149 H 0.0 **** 0.06
6829 H 48.51501792971585 72.67014027873967 2.4989611049642235 H 0.0 **** 0.06
6830 H 47.89797191102468 73.71417911270316 1.1957551484927933 H 0.0 **** 0.06
6831 C 111.31565234580705 62.25648378240069 22.716683456793646 C 0.0 **** -0.24
6832 H 112.26945114412479 62.32614272415526 23.239385409157194 H 0.0 **** 0.06
6833 H 110.54985189499436 61.89725780892343 23.405161682653187 H 0.0 **** 0.06
6834 H 111.40894316119451 61.56165233017816 21.88148589858079 H 0.0 **** 0.06
6835 H 111.03475912512465 63.23996801087023 22.34061483171564 H 0.0 **** 0.06
6836 C 3.62030898230401 4.4537939643527125 67.46643658107041 C 0.0 **** -0.24
6837 H 3.06766928701407 4.317754623365772 68.39598352284293 H 0.0 **** 0.06
6838 H 3.366295556956061 5.42053633200203 67.03129035137516 H 0.0 **** 0.06
6839 H 3.3562177415305143 3.6596742355609138 66.76777604782899 H 0.0 **** 0.06
6840 H 4.690406428477502 4.4164746234224594 67.6708958300901 H 0.0 **** 0.06
6841 C 94.25529294782814 100.49949699911795 139.15717622654347 C 0.0 **** -0.24
6842 H 94.36265110785263 101.42410151187474 138.59009371636841 H 0.0 **** 0.06
6843 H 94.64010106537525 100.64641949960514 140.1667461207815 H 0.0 **** 0.06
6844 H 94.81529348507277 99.70426489371096 138.66652348635148 H 0.0 **** 0.06
6845 H 93.20209286171071 100.22485169526817 139.20682863955955 H 0.0 **** 0.06
6846 C 22.145644475045316 0.03395541226288401 76.71271831991521 C 0.0 **** -0.24
6847 H 23.053517524746297 -0.03557983066463066 77.31199975186894 H 0.0 **** 0.06
6848 H 21.432726808001718 0.6926477320753861 77.20973211787668 H 0.0 **** 0.06
6849 H 21.708343622927856 -0.9582780895847236 76.60075178785462 H 0.0 **** 0.06
6850 H 22.389287020552757 0.43714599557122824 75.73020750888281 H 0.0 **** 0.06
6851 C 111.572230611794 22.184097601801824 98.36584683219661 C 0.0 **** -0.24
6852 H 111.3985917344827 21.92713295521201 97.32067336301475 H 0.0 **** 0.06
6853 H 112.51027847077398 22.73129110647973 98.45385994706737 H 0.0 **** 0.06
6854 H 111.6255879321235 21.27175856792705 98.95977303568316 H 0.0 **** 0.06
6855 H 110.75238802331614 22.80468928448878 98.72790477955152 H 0.0 **** 0.06
6856 C 145.95470168792042 68.9402436465964 83.89891102353607 C 0.0 **** -0.24
6857 H 145.03373269749966 69.14980808697294 83.35406173624125 H 0.0 **** 0.06
6858 H 146.8117222988787 69.18970934832362 83.27352283714043 H 0.0 **** 0.06
6859 H 145.98980316900918 67.88194012292911 84.15951114896899 H 0.0 **** 0.06
6860 H 145.98084665911188 69.53896730218469 84.80973059955244 H 0.0 **** 0.06
6861 C 66.65305978803814 0.6130903123224414 142.2066031606798 C 0.0 **** -0.24
6862 H 67.28084197387756 1.4814164942710875 142.40912737013733 H 0.0 **** 0.06
6863 H 66.9922900260559 0.12697788528942056 141.291717693132 H 0.0 **** 0.06
6864 H 65.61854652029962 0.9326748815401515 142.08778477558974 H 0.0 **** 0.06
6865 H 66.72411835818232 -0.08766130199808231 143.03828020201755 H 0.0 **** 0.06
6866 C 36.0302978070622 75.97258992829686 138.12517271468835 C 0.0 **** -0.24
6867 H 36.502460506069724 76.9272520493445 137.8917557116735 H 0.0 **** 0.06
6868 H 36.72306807802602 75.35667799172937 138.70055672702603 H 0.0 **** 0.06
6869 H 35.76924836905346 75.45959377817711 137.19995383580692 H 0.0 **** 0.06
6870 H 35.12770529496538 76.14780071979679 138.71095493014934 H 0.0 **** 0.06
6871 C 102.35714569014343 117.41927105914516 42.92368469632143 C 0.0 **** -0.24
6872 H 102.59858651326883 117.51497960700456 41.865360057717766 H 0.0 **** 0.06
6873 H 102.38216125599635 116.36652886508048 43.20759311865166 H 0.0 **** 0.06
6874 H 101.36149167539435 117.82240384638641 43.10734165561746 H 0.0 **** 0.06
6875 H 103.08843020936035 117.97206469150672 43.51379656927446 H 0.0 **** 0.06
6876 C 42.228650798179075 73.45459329869897 113.21281282833803 C 0.0 **** -0.24
6877 H 41.61974423786512 74.26711675552522 113.6081105164838 H 0.0 **** 0.06
6878 H 42.07112530742069 73.37321055890209 112.1376387004625 H 0.0 **** 0.06
6879 H 41.944100822502946 72.51978880031555 113.69442021715574 H 0.0 **** 0.06
6880 H 43.28099978806168 73.65928351488611 113.41136104562185 H 0.0 **** 0.06
6881 C 149.49544351399885 69.24374707862684 115.26202939129001 C 0.0 **** -0.24
6882 H 149.95513994658552 70.2286951401708 115.33355082344804 H 0.0 **** 0.06
6883 H 148.41422296727015 69.3521232302635 115.17852140021347 H 0.0 **** 0.06
6884 H 149.73476616001102 68.66612361101444 116.15589331350856 H 0.0 **** 0.06
6885 H 149.87845371523886 68.72657362851756 114.38242740346072 H 0.0 **** 0.06
6886 C 157.83052863988047 96.85379365412587 81.18925854290495 C 0.0 **** -0.24
6887 H 158.0019906353084 96.8133015481269 80.11381165208343 H 0.0 **** 0.06
6888 H 158.75723234391864 97.12392356394355 81.695611121529 H 0.0 **** 0.06
6889 H 157.4952029405515 95.87687995684428 81.54014486972511 H 0.0 **** 0.06
6890 H 157.06596939815188 97.59882369084949 81.40744250129148 H 0.0 **** 0.06
6891 C 32.94685592671736 41.66695021993115 53.242856598247954 C 0.0 **** -0.24
6892 H 32.23474151750941 42.04910574832206 53.97426283031558 H 0.0 **** 0.06
6893 H 32.42501573737008 41.43788515910546 52.313996084213045 H 0.0 **** 0.06
6894 H 33.4134814943631 40.760869705165874 53.63021115971523 H 0.0 **** 0.06
6895 H 33.71376520675166 42.41846924952631 53.05486945687397 H 0.0 **** 0.06
6896 C 155.69674370474138 63.24811552271278 29.425383344052136 C 0.0 **** -0.24
6897 H 154.84499450180903 62.75353881430512 28.958206677474493 H 0.0 **** 0.06
6898 H 155.39136768551035 64.2259579850103 29.795812038704923 H 0.0 **** 0.06
6899 H 156.4922961396985 63.36992897358408 28.69032235273238 H 0.0 **** 0.06
6900 H 156.05856278126546 62.64013616365264 30.254840952552115 H 0.0 **** 0.06
6901 C 96.53934557826977 21.458728410613674 3.6302496173138366 C 0.0 **** -0.24
6902 H 97.12219139256487 20.977120271280583 4.414847085472161 H 0.0 **** 0.06
6903 H 96.12639634225087 22.39447321643714 4.0067485370416875 H 0.0 **** 0.06
6904 H 95.72674999829403 20.798549844723667 3.325332298644753 H 0.0 **** 0.06
6905 H 97.18158359725001 21.66241269977062 2.7735916431411454 H 0.0 **** 0.06
6906 C 133.6107267549133 63.353221606543016 64.49497614740062 C 0.0 **** -0.24
6907 H 132.62841230582328 63.71497776133863 64.19003076774983 H 0.0 **** 0.06
6908 H 134.3793737331033 64.0268344464845 64.11422758976354 H 0.0 **** 0.06
6909 H 133.7714603654708 62.35324795307646 64.09206268856371 H 0.0 **** 0.06
6910 H 133.66259016113725 63.319874455164964 65.58277161543569 H 0.0 **** 0.06
6911 C 7.106579570290364 113.89792805435306 116.26868772800995 C 0.0 **** -0.24
6912 H 7.601885199998861 114.77038338251432 115.84119512659137 H 0.0 **** 0.06
6913 H 7.514590568303419 113.69807301048743 117.25943584921464 H 0.0 **** 0.06
6914 H 7.27340793705369 113.03487334953769 115.62464447645291 H 0.0 **** 0.06
6915 H 6.036690553866549 114.09078472528142 116.3472030161212 H 0.0 **** 0.06
6916 C 57.48341727257929 158.29313335336195 11.024398697794766 C 0.0 **** -0.24
6917 H 58.35436857319728 158.1712267974388 11.668944663773004 H 0.0 **** 0.06
6918 H 57.771900852440965 158.83244803820105 10.12232012997157 H 0.0 **** 0.06
6919 H 56.71602177406247 158.85674951217487 11.554664498487483 H 0.0 **** 0.06
6920 H 57.091692921121364 157.31302626799612 10.752694846296777 H 0.0 **** 0.06
6921 C 16.567153684344746 54.23071533769051 137.68667637366474 C 0.0 **** -0.24
6922 H 17.039402593903063 53.94968973748354 136.74560123282288 H 0.0 **** 0.06
6923 H 16.04259123623394 55.178031049717205 137.56150033800623 H 0.0 **** 0.06
6924 H 17.331185420543562 54.33639127255202 138.45818270552252 H 0.0 **** 0.06
6925 H 15.857618121920481 53.45739476621014 137.98297094011326 H 0.0 **** 0.06
6926 C 69.1758567056518 124.72657701748483 5.453977633067325 C 0.0 **** -0.24
6927 H 68.59479596657506 123.84742250855311 5.7356168988559375 H 0.0 **** 0.06
6928 H 68.56215719515379 125.619706029387 5.570636662711195 H 0.0 **** 0.06
6929 H 69.49163871297706 124.63462828463815 4.41463552412543 H 0.0 **** 0.06
6930 H 70.05348583714476 124.80229270691547 6.096060261605686 H 0.0 **** 0.06
6931 C 128.1479767894675 37.81769366529696 103.35743560217651 C 0.0 **** -0.24
6932 H 127.09433057252298 37.741670146650634 103.08643934967176 H 0.0 **** 0.06
6933 H 128.7604183175524 37.41463754345115 102.5500775456947 H 0.0 **** 0.06
6934 H 128.32995498955734 37.251184981909546 104.27048252878848 H 0.0 **** 0.06
6935 H 128.4051642106913 38.86389483484422 103.5215318673761 H 0.0 **** 0.06
6936 C 38.91511417108933 112.46940094869487 60.38534826738994 C 0.0 **** -0.24
6937 H 38.431414467613365 113.4460536792414 60.371352055234595 H 0.0 **** 0.06
6938 H 38.62948879572974 111.91152790317247 59.49300489431313 H 0.0 **** 0.06
6939 H 38.59980813564208 111.92145347229118 61.27308556645208 H 0.0 **** 0.06
6940 H 39.996772419170526 112.60006435001614 60.40256289013223 H 0.0 **** 0.06
6941 C 95.52590841449495 98.58935736206476 74.5245742867478 C 0.0 **** -0.24
6942 H 95.59759102614345 98.99720752063678 73.51682348657602 H 0.0 **** 0.06
6943 H 95.44357691190999 97.50295557729709 74.47186191947287 H 0.0 **** 0.06
6944 H 94.64375226826976 98.99660671954314 75.01959588270876 H 0.0 **** 0.06
6945 H 96.41736417720459 98.85898586433149 75.09063076897633 H 0.0 **** 0.06
6946 C 142.23121711949364 97.08243813647616 123.28381439858558 C 0.0 **** -0.24
6947 H 142.96561548241903 96.60641216675637 122.63414973609764 H 0.0 **** 0.06
6948 H 142.43865770981964 96.81963387964345 124.32055792750359 H 0.0 **** 0.06
6949 H 141.23228567108703 96.73955760818185 123.01456218346436 H 0.0 **** 0.06
6950 H 142.2887513072495 98.16493607762956 123.1637105941314 H 0.0 **** 0.06
6951 C 147.3602227596906 115.63327648772571 117.93629683524225 C 0.0 **** -0.24
6952 H 146.89698884532402 115.73102964039302 118.91884788290452 H 0.0 **** 0.06
6953 H 147.51633324567104 116.62363559444066 117.5093785856177 H 0.0 **** 0.06
6954 H 146.70692551028435 115.05374227908626 117.28374440646667 H 0.0 **** 0.06
6955 H 148.31903865380616 115.12427123404686 118.03656946307547 H 0.0 **** 0.06
6956 C 22.096919117444912 19.118906057309232 111.60148725933885 C 0.0 **** -0.24
6957 H 21.77173163352966 20.131444617612203 111.36063118822437 H 0.0 **** 0.06
6958 H 21.890338601913413 18.911872237021242 112.65219196881844 H 0.0 **** 0.06
6959 H 23.1673704472241 19.027741640949955 111.41696663888155 H 0.0 **** 0.06
6960 H 21.558559117895705 18.40658381912897 110.97750941523418 H 0.0 **** 0.06
6961 C 54.819591201539296 81.70009937994735 68.18376449307439 C 0.0 **** -0.24
6962 H 53.98641450772219 81.32935330222296 68.78024565642194 H 0.0 **** 0.06
6963 H 55.706548785601726 81.78548870596552 68.81255921409397 H 0.0 **** 0.06
6964 H 54.56746905072826 82.67845164000892 67.77485970296793 H 0.0 **** 0.06
6965 H 55.01840382154434 81.00578552154019 67.36719381479877 H 0.0 **** 0.06
6966 C 90.89332382611522 29.666298401587255 79.89323834872177 C 0.0 **** -0.24
6967 H 91.76246197486158 30.25399802462178 79.59854380628408 H 0.0 **** 0.06
6968 H 90.41658697787672 30.13039675869757 80.75699442980692 H 0.0 **** 0.06
6969 H 91.20966825233478 28.655207757793846 80.15089274885864 H 0.0 **** 0.06
6970 H 90.18528628681374 29.6245365639017 79.06590067215846 H 0.0 **** 0.06
6971 C 146.69914888293698 136.60138878528923 125.766574964402 C 0.0 **** -0.24
6972 H 146.38662748756542 135.6402411743133 126.17553281300025 H 0.0 **** 0.06
6973 H 146.06600723043232 136.85845387988115 124.91746599852965 H 0.0 **** 0.06
6974 H 147.73709104937302 136.5360144474826 125.44004454537497 H 0.0 **** 0.06
6975 H 146.60675159704908 137.37016058190463 126.53448808219088 H 0.0 **** 0.06
6976 C 100.40504809514542 136.70540032667947 104.5736779748589 C 0.0 **** -0.24
6977 H 100.24758461858855 136.97606014588752 105.617707845191 H 0.0 **** 0.06
6978 H 99.80564711850445 137.35560763557973 103.93616107945095 H 0.0 **** 0.06
6979 H 100.1077479377966 135.6686572097832 104.41828762826353 H 0.0 **** 0.06
6980 H 101.45937324238562 136.82328252665323 104.323529767152 H 0.0 **** 0.06
6981 C 32.331519026923615 10.502021468327172 150.98275895346683 C 0.0 **** -0.24
6982 H 32.8375982539896 10.713904149323383 150.04069185746658 H 0.0 **** 0.06
6983 H 32.109939288923016 9.436081752331319 151.0439784501437 H 0.0 **** 0.06
6984 H 31.401711265749356 11.069239215362728 151.03065910817628 H 0.0 **** 0.06
6985 H 32.975097387123355 10.787955943320355 151.81461604530517 H 0.0 **** 0.06
6986 C 8.141352449447673 94.68093225312839 130.86926680186767 C 0.0 **** -0.24
6987 H 9.106712113047912 94.57220102110077 130.3754864067063 H 0.0 **** 0.06
6988 H 7.376504385192419 94.90306811063283 130.12514318716697 H 0.0 **** 0.06
6989 H 8.193163159762165 95.49590620830864 131.59222945790987 H 0.0 **** 0.06
6990 H 7.889273172820957 93.75350680305206 131.38402785809754 H 0.0 **** 0.06
6991 C 15.400416243641018 118.18028116472397 25.32156997951489 C 0.0 **** -0.24
6992 H 14.351008472067065 118.42961668127151 25.481744929468164 H 0.0 **** 0.06
6993 H 15.603460890512622 118.13612383591243 24.251032314801478 H 0.0 **** 0.06
6994 H 15.615851046427167 117.21244249476945 25.772930115993546 H 0.0 **** 0.06
6995 H 16.028670442714144 118.94358776282218 25.779915410377214 H 0.0 **** 0.06
6996 C 42.40760404235961 44.611703758913976 43.633571507236894 C 0.0 **** -0.24
6997 H 41.68473727792711 44.1691501953097 44.3194649846743 H 0.0 **** 0.06
6998 H 42.645273171414985 45.62390086824354 43.96064068936721 H 0.0 **** 0.06
6999 H 41.98343307022165 44.6428255644757 42.630587839269296 H 0.0 **** 0.06
7000 H 43.315459903860415 44.00891567865149 43.62635305716147 H 0.0 **** 0.06
7001 C 41.24606418359201 119.85767082699181 88.41860241543861 C 0.0 **** -0.24
7002 H 40.363381268421676 120.0736772984256 89.02015533741803 H 0.0 **** 0.06
7003 H 41.22010953398893 120.45661706577113 87.50715319747718 H 0.0 **** 0.06
7004 H 41.25902358985462 118.80000730900414 88.15786930827585 H 0.0 **** 0.06
7005 H 42.142162343697464 120.10225823140354 88.98868217829886 H 0.0 **** 0.06
7006 C 34.50981839879209 8.67618039133123 134.41488091061512 C 0.0 **** -0.24
7007 H 34.077441378642504 8.884181552016088 135.39236002159518 H 0.0 **** 0.06
7008 H 34.258867042702164 7.658275899997278 134.11442000141474 H 0.0 **** 0.06
7009 H 35.59381238463267 8.782904393298224 134.46586041660822 H 0.0 **** 0.06
7010 H 34.11054829521717 9.37978135981794 133.68343716086247 H 0.0 **** 0.06
7011 C 41.98350901869925 94.3698917242194 89.16056652357868 C 0.0 **** -0.24
7012 H 42.327239750038885 93.63886984419439 88.42818815422112 H 0.0 **** 0.06
7013 H 40.94025670921597 94.17096622308112 89.40831267705619 H 0.0 **** 0.06
7014 H 42.0736178358035 95.3722912457907 88.74326875849431 H 0.0 **** 0.06
7015 H 42.592211354273786 94.29460701101738 90.06128319138249 H 0.0 **** 0.06
7016 C 46.51476929611215 30.289248949557987 105.98607917135416 C 0.0 **** -0.24
7017 H 46.72817881271487 30.90297725677715 105.11098500736921 H 0.0 **** 0.06
7018 H 47.35337992150903 30.343023133972366 106.68025379637959 H 0.0 **** 0.06
7019 H 46.36420169420285 29.254807848114325 105.67554754172568 H 0.0 **** 0.06
7020 H 45.6126140788258 30.656017951471057 106.47518990002675 H 0.0 **** 0.06
7021 C 74.92627595391811 15.227231546324155 81.47021409280563 C 0.0 **** -0.24
7022 H 75.68157430789007 15.270490205107386 80.68562506946718 H 0.0 **** 0.06
7023 H 74.14319619723665 14.524832163067352 81.18295447677363 H 0.0 **** 0.06
7024 H 74.49261563800543 16.217429429206362 81.61182537158096 H 0.0 **** 0.06
7025 H 75.38776971774057 14.895829835702244 82.40138879285341 H 0.0 **** 0.06
7026 C 95.71386989218371 31.33305141305587 140.23779773521858 C 0.0 **** -0.24
7027 H 96.64296748033746 31.899456717683336 140.1748330192516 H 0.0 **** 0.06
7028 H 94.88638658205048 31.95409102940164 139.8930223618206 H 0.0 **** 0.06
7029 H 95.53890393385569 31.03512336833427 141.27135258845288 H 0.0 **** 0.06
7030 H 95.78824164264614 30.44448289686821 139.61023362262222 H 0.0 **** 0.06
7031 C 21.986734051244653 152.1749497945517 3.9977437460833585 C 0.0 **** -0.24
7032 H 21.627930775524533 151.5666177284119 4.82740279265829 H 0.0 **** 0.06
7033 H 21.149587748421695 152.43477512668807 3.3491053652349194 H 0.0 **** 0.06
7034 H 22.72704480976045 151.6124983609004 3.429335263265756 H 0.0 **** 0.06
7035 H 22.441848705332248 153.085540448012 4.385899816755341 H 0.0 **** 0.06
7036 C 45.73883876462554 85.88511775152026 39.37352263192008 C 0.0 **** -0.24
7037 H 46.20550027546716 85.1133848316151 39.98629111389539 H 0.0 **** 0.06
7038 H 46.479757654630134 86.64315484443614 39.11878191801105 H 0.0 **** 0.06
7039 H 44.923063155497005 86.34642332547944 39.9302579220348 H 0.0 **** 0.06
7040 H 45.34824208055653 85.43743795939548 38.46063992489931 H 0.0 **** 0.06
7041 C 162.41585532686216 16.89166240154583 154.97751082083295 C 0.0 **** -0.24
7042 H 162.61263898979266 15.912172149427136 155.4138637797923 H 0.0 **** 0.06
7043 H 163.16153305721213 17.6036272041558 155.33261886951612 H 0.0 **** 0.06
7044 H 161.42203711538366 17.22775197257792 155.27354802071625 H 0.0 **** 0.06
7045 H 162.46746231687342 16.823307271116903 153.89138876633143 H 0.0 **** 0.06
7046 C 87.62637464695364 57.79406918965756 138.7015879054638 C 0.0 **** -0.24
7047 H 88.31360691552685 57.92059176375615 139.53838998254707 H 0.0 **** 0.06
7048 H 86.60009784519447 57.875928786752525 139.06030897293357 H 0.0 **** 0.06
7049 H 87.7779179343382 56.81341090837063 138.25187823594067 H 0.0 **** 0.06
7050 H 87.81425551535466 58.568241364703255 137.95727809444523 H 0.0 **** 0.06
7051 C 86.45572957410536 44.25702260875936 23.142953720572564 C 0.0 **** -0.24
7052 H 85.37735306464569 44.2560544235733 23.303477984633943 H 0.0 **** 0.06
7053 H 86.96566637164358 44.25874865232559 24.106793109186953 H 0.0 **** 0.06
7054 H 86.73735796539512 45.14776120865854 22.5813185599579 H 0.0 **** 0.06
7055 H 86.74066618945935 43.3678349384944 22.581693325921947 H 0.0 **** 0.06
7056 C 1.3206585166516902 81.51075304545769 128.29541415225714 C 0.0 **** -0.24
7057 H 2.135773868441703 81.53697955773242 129.01830624400463 H 0.0 **** 0.06
7058 H 0.9793447421209294 80.48268554952878 128.1719556415395 H 0.0 **** 0.06
7059 H 1.6725997647475026 81.8951903774666 127.33760301201784 H 0.0 **** 0.06
7060 H 0.4969129598824509 82.1269168088161 128.654480025576 H 0.0 **** 0.06
7061 C 93.99027390425002 120.36995552815881 58.814556440421825 C 0.0 **** -0.24
7062 H 94.9902861133698 120.1898498373647 59.21134156104381 H 0.0 **** 0.06
7063 H 93.71277238247002 119.55374576966364 58.14784032407579 H 0.0 **** 0.06
7064 H 93.98378011906414 121.30954178133601 58.26222922372756 H 0.0 **** 0.06
7065 H 93.27787484898684 120.42609558455007 59.637565998823106 H 0.0 **** 0.06
7066 C 75.10995498085319 74.8165689602281 78.29190684444706 C 0.0 **** -0.24
7067 H 74.34674272738278 74.67988525358896 77.52661380346555 H 0.0 **** 0.06
7068 H 75.1497910662838 75.86587188552096 78.58199695656586 H 0.0 **** 0.06
7069 H 76.07860188370506 74.51120919809063 77.89565003073852 H 0.0 **** 0.06
7070 H 74.8648999913215 74.20708586333183 79.16236206797203 H 0.0 **** 0.06
7071 C 145.50585928412107 22.842974597224213 110.66245052759598 C 0.0 **** -0.24
7072 H 145.75024954354922 23.56028147963889 111.4469517332056 H 0.0 **** 0.06
7073 H 145.03974722235273 21.964081934386968 111.10620388764886 H 0.0 **** 0.06
7074 H 146.41824705872898 22.54887853593698 110.1426304210018 H 0.0 **** 0.06
7075 H 144.8161118811111 23.302259217744165 109.95359578542707 H 0.0 **** 0.06
7076 C 154.9406885604792 37.97906482149405 19.30802943170596 C 0.0 **** -0.24
7077 H 154.10328923982775 38.67043924003791 19.404573001071128 H 0.0 **** 0.06
7078 H 155.46485163550895 38.17197212673767 18.371391970943307 H 0.0 **** 0.06
7079 H 154.5678805439818 36.95499388107521 19.31130603574627 H 0.0 **** 0.06
7080 H 155.62573659481382 38.11875747630688 20.143847586250956 H 0.0 **** 0.06
7081 C 115.98724934401301 38.14990235770118 146.9926997471143 C 0.0 **** -0.24
7082 H 114.96925818616614 38.460462608148276 147.22803183222402 H 0.0 **** 0.06
7083 H 115.96567177099459 37.171507809246336 146.51093691796132 H 0.0 **** 0.06
7084 H 116.5710086893697 38.08959893647868 147.91073316300015 H 0.0 **** 0.06
7085 H 116.44281743524328 38.87574663792441 146.3194593463465 H 0.0 **** 0.06
7086 C 153.66644806919507 123.38162426034603 42.15904205046263 C 0.0 **** -0.24
7087 H 154.66383754217065 123.81056566758309 42.248313117044404 H 0.0 **** 0.06
7088 H 152.92165721378825 124.1747960878572 42.225652070529804 H 0.0 **** 0.06
7089 H 153.50594578373293 122.66417785863581 42.964261620567754 H 0.0 **** 0.06
7090 H 153.57272245174303 122.87513352800187 41.198079240230186 H 0.0 **** 0.06
7091 C 76.81243033409739 114.40105678472173 57.58115152542835 C 0.0 **** -0.24
7092 H 76.69122120018362 113.47556478742808 58.144269427425584 H 0.0 **** 0.06
7093 H 76.96263215099346 114.16750704673098 56.52630753635265 H 0.0 **** 0.06
7094 H 77.67751022925435 114.94534696568104 57.95964039286336 H 0.0 **** 0.06
7095 H 75.91914966963098 115.0143195809909 57.69399306499314 H 0.0 **** 0.06
7096 C 11.521600475279968 37.1514256925186 26.827593001528953 C 0.0 **** -0.24
7097 H 12.039577127786316 36.568344399933295 27.5883151688096 H 0.0 **** 0.06
7098 H 11.882332327804448 36.86213541197509 25.840744731782905 H 0.0 **** 0.06
7099 H 11.715102152436032 38.21233040153018 26.988823212832983 H 0.0 **** 0.06
7100 H 10.449561104144806 36.96319896892757 26.893858927526423 H 0.0 **** 0.06
7101 C 151.05890543903192 57.96671915128282 1.6940976033634172 C 0.0 **** -0.24
7102 H 152.01852673973465 57.94699555502058 2.2120009115737247 H 0.0 **** 0.06
7103 H 151.0913862668042 58.71159517543779 0.8983900007516041 H 0.0 **** 0.06
7104 H 150.27055900615082 58.222831079378054 2.40148746708622 H 0.0 **** 0.06
7105 H 150.85749438094203 56.985394429430954 1.265218583415468 H 0.0 **** 0.06
7106 C 94.22339822555901 11.3297241979418 96.85150689573209 C 0.0 **** -0.24
7107 H 95.04914270422064 11.75980382521243 96.28268135572385 H 0.0 **** 0.06
7108 H 94.17416980365175 11.801953876226492 97.83254794594313 H 0.0 **** 0.06
7109 H 94.38459788266978 10.258498642542463 96.9704368010714 H 0.0 **** 0.06
7110 H 93.28811109053296 11.499838065712026 96.3190699741905 H 0.0 **** 0.06
7111 C 47.02672055536186 36.342018080318894 13.496430331474016 C 0.0 **** -0.24
7112 H 48.020021096347264 36.411561327345964 13.05334273389795 H 0.0 **** 0.06
7113 H 46.49985627306624 37.28603851270316 13.354908856376142 H 0.0 **** 0.06
7114 H 47.11847932456092 36.13179460668539 14.561818646666154 H 0.0 **** 0.06
7115 H 46.47012637203419 35.538640294870106 13.014090308587498 H 0.0 **** 0.06
7116 C 59.3746284483077 97.25364885858727 117.04558313210416 C 0.0 **** -0.24
7117 H 60.433827934598014 97.19220931266949 116.79380045668375 H 0.0 **** 0.06
7118 H 59.20804127054814 96.8095811739787 118.02669599122234 H 0.0 **** 0.06
7119 H 58.792995856931554 96.71305410118282 116.2988116168585 H 0.0 **** 0.06
7120 H 59.06516485258342 98.29815440653516 117.06098656600781 H 0.0 **** 0.06
7121 C 76.60386636045672 149.68682047148152 129.47448378975173 C 0.0 **** -0.24
7122 H 76.12855200457756 149.93385599396345 130.4236368658036 H 0.0 **** 0.06
7123 H 76.72322283353677 150.5933812184676 128.88131729076673 H 0.0 **** 0.06
7124 H 75.98160136251221 148.97521748298365 128.93132144701673 H 0.0 **** 0.06
7125 H 77.58145068396203 149.2434269788757 129.66245437776996 H 0.0 **** 0.06
7126 C 39.095958213703 130.31516276887032 60.55303788772608 C 0.0 **** -0.24
7127 H 40.00030219128888 130.13660841551567 61.135997760327285 H 0.0 **** 0.06
7128 H 39.177346629765935 129.80513452786488 59.59239746607901 H 0.0 **** 0.06
7129 H 38.97658448402359 131.3859147333746 60.38813187023695 H 0.0 **** 0.06
7130 H 38.23311327408666 129.93193280892288 61.09635199323685 H 0.0 **** 0.06
7131 C 55.4444296659596 148.88819426046774 1.255034968299185 C 0.0 **** -0.24
7132 H 56.02483798365057 148.11663847656138 0.7507149657636489 H 0.0 **** 0.06
7133 H 56.08628055965278 149.74213638047104 1.4741609027898903 H 0.0 **** 0.06
7134 H 55.03988958727956 148.48805678944558 2.1851743178976903 H 0.0 **** 0.06
7135 H 54.62462752348216 149.2053112158237 0.6095807295184272 H 0.0 **** 0.06
7136 C 44.65706408585663 81.23199083047359 136.01641012966166 C 0.0 **** -0.24
7137 H 45.347974705443846 81.20838078153486 135.17400350516743 H 0.0 **** 0.06
7138 H 43.668099081955006 80.91630442525141 135.68388768543335 H 0.0 **** 0.06
7139 H 44.60106706167991 82.24727731158254 136.411502029031 H 0.0 **** 0.06
7140 H 45.01086018522648 80.55841905987381 136.79654231522835 H 0.0 **** 0.06
7141 C 115.23245250927596 122.74070188587339 73.61702244179139 C 0.0 **** -0.24
7142 H 115.90715322082451 122.30351259358363 74.35445812764027 H 0.0 **** 0.06
7143 H 115.06782196215278 122.02766146363183 72.80935172432123 H 0.0 **** 0.06
7144 H 115.6752257656268 123.65141565550002 73.2150198329162 H 0.0 **** 0.06
7145 H 114.2807625044469 122.97808831639435 74.09274366426393 H 0.0 **** 0.06
7146 C 121.07682456867389 48.52818740063526 41.71428419967128 C 0.0 **** -0.24
7147 H 121.41556437535601 48.78339175221316 40.710547722382785 H 0.0 **** 0.06
7148 H 120.71910511282849 47.49919597283363 41.7260422946199 H 0.0 **** 0.06
7149 H 120.2677132814492 49.198280753582935 42.00493464434726 H 0.0 **** 0.06
7150 H 121.90455380791363 48.63394455341455 42.41483009848787 H 0.0 **** 0.06
7151 C 146.46427836566303 20.10792327549251 150.1542032336014 C 0.0 **** -0.24
7152 H 146.73266019555172 19.08208076745342 150.40835913928055 H 0.0 **** 0.06
7153 H 146.9563299056878 20.792765057790803 150.8445204489211 H 0.0 **** 0.06
7154 H 145.38376801363853 20.229724625437314 150.22956014205963 H 0.0 **** 0.06
7155 H 146.784903509216 20.325324236964207 149.13594336529275 H 0.0 **** 0.06
7156 C 134.17010971590088 80.3641578503333 77.03223991942335 C 0.0 **** -0.24
7157 H 133.38651693319798 79.72930852134186 77.44719361630676 H 0.0 **** 0.06
7158 H 134.59373093960915 79.88731032409345 76.14808644550372 H 0.0 **** 0.06
7159 H 134.95180427994327 80.50991746296148 77.77649561650591 H 0.0 **** 0.06
7160 H 133.74541547425375 81.32952633412793 76.75626282171253 H 0.0 **** 0.06
7161 C 72.14208764111906 30.00241311841603 160.754814427057 C 0.0 **** -0.24
7162 H 71.95518428780277 31.03877052141212 160.4748424586427 H 0.0 **** 0.06
7163 H 73.15417064929693 29.911371638803757 161.15138515564627 H 0.0 **** 0.06
7164 H 72.03622775765642 29.364131628442806 159.87759365595474 H 0.0 **** 0.06
7165 H 71.42441745137236 29.696421577950105 161.51587390272414 H 0.0 **** 0.06
7166 C 123.79020680425774 19.01387725652637 49.777088706836764 C 0.0 **** -0.24
7167 H 123.96136036375691 18.567130636825766 50.75624485286157 H 0.0 **** 0.06
7168 H 123.45636174778673 18.243652817498912 49.08052736579394 H 0.0 **** 0.06
7169 H 124.71735612526172 19.456606304617026 49.41233262486233 H 0.0 **** 0.06
7170 H 123.02634336859958 19.786500582410213 49.85908672737702 H 0.0 **** 0.06
7171 C 37.10745358676655 82.94499181346367 150.5760585211367 C 0.0 **** -0.24
7172 H 37.29900156930728 83.50549129664495 151.49062810901387 H 0.0 **** 0.06
7173 H 38.041319508363756 82.81352295457873 150.0287192646262 H 0.0 **** 0.06
7174 H 36.39756581255671 83.492221433623 149.95697136771787 H 0.0 **** 0.06
7175 H 36.69333559155194 81.9686439979481 150.82801305858118 H 0.0 **** 0.06
7176 C 83.52894888287352 88.32272880921096 22.733609872229692 C 0.0 **** -0.24
7177 H 84.28571137366868 87.89591412412999 23.390478626057075 H 0.0 **** 0.06
7178 H 83.90707347245603 88.34638538461972 21.71115985269708 H 0.0 **** 0.06
7179 H 83.29594020208759 89.33666917701754 23.0576912197823 H 0.0 **** 0.06
7180 H 82.62600956417799 87.71207800532596 22.77314578393205 H 0.0 **** 0.06
7181 C 125.11510688639444 4.482954786184429 162.97389554279604 C 0.0 **** -0.24
7182 H 124.92343657099465 4.706018140898301 161.9242712819223 H 0.0 **** 0.06
7183 H 124.28027937377911 4.837819712013641 163.57841086156057 H 0.0 **** 0.06
7184 H 126.03084361913844 4.980895165977664 163.2902046070615 H 0.0 **** 0.06
7185 H 125.22352964719346 3.405272719330462 163.10119739504623 H 0.0 **** 0.06
7186 C 34.09935721696638 128.24052202506016 13.498322090696291 C 0.0 **** -0.24
7187 H 35.083234424728175 127.8942273308748 13.183170610990324 H 0.0 **** 0.06
7188 H 33.93883758464068 129.25581085168673 13.136077845858246 H 0.0 **** 0.06
7189 H 34.04122728502483 128.22866911735406 14.586153989085098 H 0.0 **** 0.06
7190 H 33.33421066279175 127.5825917387053 13.086715076707712 H 0.0 **** 0.06
7191 C 161.01015488344765 54.408572614858116 25.537778143736972 C 0.0 **** -0.24
7192 H 160.74149374590618 55.34877621841537 26.018889584762775 H 0.0 **** 0.06
7193 H 160.8894693325964 54.50523758157425 24.4587615820204 H 0.0 **** 0.06
7194 H 160.36133715862235 53.6134785632743 25.90669940822579 H 0.0 **** 0.06
7195 H 162.04838520038385 54.166328690337735 25.768094432010997 H 0.0 **** 0.06
7196 C 61.39346088183491 23.087746784781586 122.57665167140999 C 0.0 **** -0.24
7197 H 60.915493581890615 22.898651372106883 121.61553147249515 H 0.0 **** 0.06
7198 H 61.85585293238624 24.07563520773317 122.5642031737475 H 0.0 **** 0.06
7199 H 62.15764578162087 22.331206032981186 122.75716596538552 H 0.0 **** 0.06
7200 H 60.646592101494676 23.046146312815324 123.3689680587521 H 0.0 **** 0.06
7201 C 83.36608718624403 148.62894399014584 97.09123642471752 C 0.0 **** -0.24
7202 H 82.44025068043801 148.59883188820834 96.51641741524321 H 0.0 **** 0.06
7203 H 84.02727036481892 149.38943693595905 96.67597249026156 H 0.0 **** 0.06
7204 H 83.85594098873007 147.6557578638941 97.04233947072305 H 0.0 **** 0.06
7205 H 83.14026712884406 148.86987719313277 98.1305503248089 H 0.0 **** 0.06
7206 C 140.93243872674105 56.64329217943498 144.29953412122865 C 0.0 **** -0.24
7207 H 140.93914921913967 55.6148298220898 143.93824059640113 H 0.0 **** 0.06
7208 H 140.93766727168764 56.64459124766478 145.3896698193809 H 0.0 **** 0.06
7209 H 140.0368151926958 57.14854300984291 143.93955369612584 H 0.0 **** 0.06
7210 H 141.81643803447858 57.163516370873765 143.9308976243817 H 0.0 **** 0.06
7211 C 58.178687541708356 50.65386847585438 45.85119383522692 C 0.0 **** -0.24
7212 H 58.83933852787587 50.55708464141617 44.990164223359386 H 0.0 **** 0.06
7213 H 58.775456170235074 50.80173744692712 46.75160698851471 H 0.0 **** 0.06
7214 H 57.58127499378783 49.74792634072128 45.9550059759967 H 0.0 **** 0.06
7215 H 57.518925463314545 51.51008823051063 45.70828614037714 H 0.0 **** 0.06
7216 C 28.280021530906772 144.70746137546516 149.30813688701977 C 0.0 **** -0.24
7217 H 29.205948509527907 145.25634515227995 149.1370822792827 H 0.0 **** 0.06
7218 H 28.471076373350634 143.87384838495822 149.98474040343345 H 0.0 **** 0.06
7219 H 27.9027120275779 144.3263570239526 148.35938673201224 H 0.0 **** 0.06
7220 H 27.54005438642467 145.37334451336807 149.75229241314065 H 0.0 **** 0.06
7221 C 15.838440531352688 76.77607016065873 131.18915776035 C 0.0 **** -0.24
7222 H 15.174036167450232 75.98128532251012 130.84748421566138 H 0.0 **** 0.06
7223 H 15.426763914729605 77.7428147745502 130.89946815500383 H 0.0 **** 0.06
7224 H 16.82052672877881 76.64843508757819 130.7351425524674 H 0.0 **** 0.06
7225 H 15.930541857459176 76.73027799559716 132.27402469300142 H 0.0 **** 0.06
7226 C 153.82269437513025 149.69117027124054 158.04626138961962 C 0.0 **** -0.24
7227 H 153.39651774376898 149.4792578867456 157.06485498854852 H 0.0 **** 0.06
7228 H 153.03529803952097 149.653727731608 158.7999801465789 H 0.0 **** 0.06
7229 H 154.27316859520772 150.68384622826397 158.03896167303768 H 0.0 **** 0.06
7230 H 154.58418747727887 148.94736337730683 158.27856805156006 H 0.0 **** 0.06
7231 C 112.92632336943561 80.35695034795356 63.4953112222575 C 0.0 **** -0.24
7232 H 112.85236477263334 81.19058268352808 64.19324323430237 H 0.0 **** 0.06
7233 H 112.01270714985964 79.76248689288298 63.542135632154384 H 0.0 **** 0.06
7234 H 113.77872674733158 79.73353645526524 63.76412051773184 H 0.0 **** 0.06
7235 H 113.06034420822036 80.74005783652791 62.48406550523191 H 0.0 **** 0.06
7236 C 15.139720784279604 90.38467110546028 77.53325627686934 C 0.0 **** -0.24
7237 H 14.411578592455442 90.13610586955103 78.30468358836168 H 0.0 **** 0.06
7238 H 15.028552907765516 89.69790511237326 76.69414661172408 H 0.0 **** 0.06
7239 H 16.146777168854044 90.29753341694044 77.94262329397952 H 0.0 **** 0.06
7240 H 14.973263143936492 91.40598357934014 77.19161681405885 H 0.0 **** 0.06
7241 C 105.10265201562967 127.11580148909022 89.2666784426496 C 0.0 **** -0.24
7242 H 104.20359448815762 126.72116422136196 88.79148385307656 H 0.0 **** 0.06
7243 H 105.94436700181731 126.45804168429362 89.05338115566713 H 0.0 **** 0.06
7244 H 104.94765603066378 127.17237923190712 90.34391195778471 H 0.0 **** 0.06
7245 H 105.31079567685214 128.11232656829068 88.8769851746917 H 0.0 **** 0.06
7246 C 57.1029615123217 46.14028086429278 17.822905077437326 C 0.0 **** -0.24
7247 H 57.71134440157384 45.2627193222915 17.60489625650564 H 0.0 **** 0.06
7248 H 56.66992096799795 46.52020084575531 16.89728335839564 H 0.0 **** 0.06
7249 H 57.726095706500956 46.91128014979961 18.275918023515345 H 0.0 **** 0.06
7250 H 56.304102283105294 45.86712232835765 18.512175848267304 H 0.0 **** 0.06
7251 C 131.26539031690066 151.56220108959184 89.49176583687515 C 0.0 **** -0.24
7252 H 131.5168582215354 151.26720762909787 90.51115224371863 H 0.0 **** 0.06
7253 H 131.39155108747812 150.70873892788507 88.82559344601843 H 0.0 **** 0.06
7254 H 131.92334659149122 152.3717233870886 89.17486827735453 H 0.0 **** 0.06
7255 H 130.2292973345047 151.90049038723672 89.45775747770162 H 0.0 **** 0.06
7256 C 5.466555508661884 73.88526312695373 19.32805890183254 C 0.0 **** -0.24
7257 H 5.578647079053951 73.24444206154591 20.202563729744924 H 0.0 **** 0.06
7258 H 4.772373482143337 73.42321973153976 18.625918546262213 H 0.0 **** 0.06
7259 H 6.435903907226816 74.01627797754173 18.84671945954352 H 0.0 **** 0.06
7260 H 5.079490561614023 74.85576381833285 19.635964637827854 H 0.0 **** 0.06
7261 C 53.87243269971026 16.079972306600837 45.895348875374964 C 0.0 **** -0.24
7262 H 54.256287546348815 15.226956788502093 45.33573218515639 H 0.0 **** 0.06
7263 H 52.78306426314798 16.05614680226506 45.89194497338178 H 0.0 **** 0.06
7264 H 54.21768921002351 17.003927300636747 45.43256497801768 H 0.0 **** 0.06
7265 H 54.23446966726746 16.03113200521898 46.92357248597156 H 0.0 **** 0.06
7266 C 140.5797567144275 4.877611868344786 2.160366118263049 C 0.0 **** -0.24
7267 H 140.14388951266875 5.401549180990131 3.0116248109249426 H 0.0 **** 0.06
7268 H 140.88212871487383 3.875895573235894 2.466144634994798 H 0.0 **** 0.06
7269 H 141.45170897209164 5.4272667130148875 1.803481376551396 H 0.0 **** 0.06
7270 H 139.84261697472846 4.8074559398558705 1.3613567542177734 H 0.0 **** 0.06
7271 C 78.83846004608404 82.42722983341758 65.32680566651182 C 0.0 **** -0.24
7272 H 78.04405349827886 81.84983185013232 65.80022902528235 H 0.0 **** 0.06
7273 H 78.81044067439083 83.45286940288406 65.6937446560449 H 0.0 **** 0.06
7274 H 78.69460607030936 82.42366123006735 64.2456571108086 H 0.0 **** 0.06
7275 H 79.80384828631401 81.98159305403868 65.56646221111308 H 0.0 **** 0.06
7276 C 79.57929269331606 29.825114410506416 12.497355616999037 C 0.0 **** -0.24
7277 H 79.52715903362889 30.901093090036852 12.661055930948372 H 0.0 **** 0.06
7278 H 79.36735346959208 29.304565771696133 13.431019754347524 H 0.0 **** 0.06
7279 H 80.57769114028753 29.557929218605068 12.150238219574199 H 0.0 **** 0.06
7280 H 78.84472372851002 29.536497843895205 11.744917049353454 H 0.0 **** 0.06
7281 C 88.64157075468756 101.45573258805766 13.045597783397 C 0.0 **** -0.24
7282 H 88.47401211068603 102.3789761102974 13.601176208234023 H 0.0 **** 0.06
7283 H 89.44188589057143 101.60763715833818 12.32191932151278 H 0.0 **** 0.06
7284 H 87.72644514907017 101.17636157283843 12.523063735638686 H 0.0 **** 0.06
7285 H 88.92144827811745 100.66159162257469 13.737686326125583 H 0.0 **** 0.06
7286 C 160.16698363837935 141.7996677293961 146.55261603121403 C 0.0 **** -0.24
7287 H 159.19149178081247 141.7398313646285 146.07073422077875 H 0.0 **** 0.06
7288 H 160.95035630080187 141.68020526272068 145.80398537763762 H 0.0 **** 0.06
7289 H 160.25373858736515 141.0085673586941 147.29791037586588 H 0.0 **** 0.06
7290 H 160.27322023397818 142.76955990627593 147.03924199373805 H 0.0 **** 0.06
7291 C 22.28126643293828 63.17402941164039 8.513111538243265 C 0.0 **** -0.24
7292 H 22.028286815938145 63.91940350277122 9.267464008549098 H 0.0 **** 0.06
7293 H 21.72803283232716 63.38265085810633 7.597282657884421 H 0.0 **** 0.06
7294 H 22.018009431429903 62.18270223506977 8.880443815334843 H 0.0 **** 0.06
7295 H 23.35108033149737 63.21422976023105 8.308541241653018 H 0.0 **** 0.06
7296 C 57.74425004450143 17.384131561675815 110.19309599025942 C 0.0 **** -0.24
7297 H 58.272412498052404 18.220268896814275 110.6528836337572 H 0.0 **** 0.06
7298 H 58.16821051409437 16.44626684984553 110.55098024202255 H 0.0 **** 0.06
7299 H 57.847962772938956 17.441129672314446 109.10971898780778 H 0.0 **** 0.06
7300 H 56.68793831376979 17.432088164806373 110.46033668735973 H 0.0 **** 0.06
7301 C 119.2691632895895 105.74063367803296 83.52318495322513 C 0.0 **** -0.24
7302 H 120.02312862954668 106.51159447875483 83.68163229843455 H 0.0 **** 0.06
7303 H 119.44183963267685 104.91591293927718 84.21479282302398 H 0.0 **** 0.06
7304 H 119.33345448981854 105.37503950497015 82.49805256381936 H 0.0 **** 0.06
7305 H 118.27822220491504 106.16036872341382 83.69733754556111 H 0.0 **** 0.06
7306 C 143.76938087068572 152.57132918569025 26.730942202894482 C 0.0 **** -0.24
7307 H 143.9287207595146 152.7645698986777 25.67069522933815 H 0.0 **** 0.06
7308 H 144.67036404355167 152.12919827400373 27.158364114490553 H 0.0 **** 0.06
7309 H 142.93292340052494 151.8835241400096 26.853795641744114 H 0.0 **** 0.06
7310 H 143.54717179048018 153.5088178282639 27.24170541317352 H 0.0 **** 0.06
7311 C 113.75177439616229 67.26687719428008 25.818149774681785 C 0.0 **** -0.24
7312 H 113.00574729156438 66.80044298161357 25.17356340666055 H 0.0 **** 0.06
7313 H 113.62565828990239 66.90693270211196 26.838967843235395 H 0.0 **** 0.06
7314 H 113.62348964427886 68.34930713506827 25.795295504335343 H 0.0 **** 0.06
7315 H 114.74956932110612 67.01160600612741 25.46153827884592 H 0.0 **** 0.06
7316 C 105.41847843644723 140.05069378579896 84.8294616203357 C 0.0 **** -0.24
7317 H 104.93489135406458 139.81599154716713 85.77809393649181 H 0.0 **** 0.06
7318 H 106.49366003727164 139.89275005363703 84.9215713330671 H 0.0 **** 0.06
7319 H 105.22375763364539 141.0917838570744 84.57113790705995 H 0.0 **** 0.06
7320 H 105.02145673023881 139.40162378005647 84.04918491446821 H 0.0 **** 0.06
7321 C 73.45291294690148 80.75961200533567 101.06470910280851 C 0.0 **** -0.24
7322 H 72.55889595142054 80.17690869184526 101.28767620547725 H 0.0 **** 0.06
7323 H 73.44057283559056 81.68134533416753 101.64713959159448 H 0.0 **** 0.06
7324 H 73.47226932792186 81.00157748993928 100.00139121295334 H 0.0 **** 0.06
7325 H 74.33847399582905 80.17872261537099 101.3206504488756 H 0.0 **** 0.06
7326 C 17.39797539228141 1.525981500915961 128.7550085132558 C 0.0 **** -0.24
7327 H 16.515190006710434 1.4679557941948715 129.39040507060804 H 0.0 **** 0.06
7328 H 17.727939482198394 2.562622554604552 128.68503073103506 H 0.0 **** 0.06
7329 H 17.15467541203227 1.153170214633903 127.7596674942973 H 0.0 **** 0.06
7330 H 18.195140487373692 0.9193209500761341 129.18451013079383 H 0.0 **** 0.06
7331 C 57.284709431591395 3.9027546396968162 65.32693579780718 C 0.0 **** -0.24
7332 H 57.81751604560779 4.630113802008729 64.71306881937538 H 0.0 **** 0.06
7333 H 57.47669464617694 4.106253542282559 66.37998598761283 H 0.0 **** 0.06
7334 H 57.63041219403317 2.8987931498601043 65.08160587953613 H 0.0 **** 0.06
7335 H 56.21463685704616 3.9775715004636183 65.13087201127982 H 0.0 **** 0.06
7336 C 121.48208087451394 49.18752156854529 26.084995728070055 C 0.0 **** -0.24
7337 H 120.48475365824015 49.08169738254401 26.51230420192445 H 0.0 **** 0.06
7338 H 121.56756135228426 48.55194856257549 25.203389291154906 H 0.0 **** 0.06
7339 H 122.22652779271368 48.890550606446055 26.82285265935198 H 0.0 **** 0.06
7340 H 121.64616650792172 50.227583064804605 25.80105052161764 H 0.0 **** 0.06
7341 C 29.791859768063397 118.91496259036984 11.654809950523884 C 0.0 **** -0.24
7342 H 28.88216367996747 118.32417028303834 11.54923380955708 H 0.0 **** 0.06
7343 H 30.63115663096228 118.37132548038554 11.218845063703611 H 0.0 **** 0.06
7344 H 29.986674553523493 119.0966557622695 12.71167542983423 H 0.0 **** 0.06
7345 H 29.667826977527497 119.86679149418211 11.138470472444482 H 0.0 **** 0.06
7346 C 128.51277615447154 116.25755183326683 154.1367622343491 C 0.0 **** -0.24
7347 H 128.1977284317708 115.53942635901109 154.89349043938915 H 0.0 **** 0.06
7348 H 129.55436784232094 116.53255324552211 154.30737255521782 H 0.0 **** 0.06
7349 H 127.88644844644898 117.14834448122943 154.1984790215156 H 0.0 **** 0.06
7350 H 128.41179183183965 115.8108910488317 153.14707885135618 H 0.0 **** 0.06
7351 C 119.70372483914065 143.00448252365732 59.954263415511505 C 0.0 **** -0.24
7352 H 119.59017823754743 144.08390412401312 59.856728717064314 H 0.0 **** 0.06
7353 H 119.91022238768431 142.75321755148587 60.994847168426446 H 0.0 **** 0.06
7354 H 120.53015269625382 142.6684445946344 59.32712515604095 H 0.0 **** 0.06
7355 H 118.78380674561333 142.5131662204575 59.63732044419454 H 0.0 **** 0.06
7356 C 85.97908547046963 30.126944190231143 134.33697235928463 C 0.0 **** -0.24
7357 H 85.38855161922908 29.327192244985156 134.782456829178 H 0.0 **** 0.06
7358 H 85.41064080234278 31.0562624612362 134.3636003015427 H 0.0 **** 0.06
7359 H 86.21424745094346 29.87341326010221 133.3033410118437 H 0.0 **** 0.06
7360 H 86.90526644285187 30.250976656079615 134.89912771438787 H 0.0 **** 0.06
7361 C 81.29646119055245 158.9233759574489 83.00270240847621 C 0.0 **** -0.24
7362 H 81.00115046927331 159.77730191358057 82.39283610979066 H 0.0 **** 0.06
7363 H 82.21254411640388 159.16265810248206 83.54312261210029 H 0.0 **** 0.06
7364 H 81.46657580932253 158.0598112281569 82.35999421630055 H 0.0 **** 0.06
7365 H 80.504109366074 158.69503892912792 83.71524056928153 H 0.0 **** 0.06
7366 C 22.530452418238212 11.608226660594823 56.65375586670602 C 0.0 **** -0.24
7367 H 22.57814792912876 11.679561913099349 55.566976088410044 H 0.0 **** 0.06
7368 H 22.488500639594236 10.55990936270473 56.94753761387477 H 0.0 **** 0.06
7369 H 21.638292146846425 12.122636183450709 57.01180302680221 H 0.0 **** 0.06
7370 H 23.41624186939862 12.07272618852457 57.08733065927662 H 0.0 **** 0.06
7371 C 50.96137470537609 160.24937656771976 123.30512806091068 C 0.0 **** -0.24
7372 H 52.0208182195322 160.2194553012003 123.05051656223424 H 0.0 **** 0.06
7373 H 50.662327866494095 161.28088074619018 123.49214940476253 H 0.0 **** 0.06
7374 H 50.78615116648625 159.65219985181716 124.19973329419426 H 0.0 **** 0.06
7375 H 50.37860361329032 159.84543242363577 122.47798308922631 H 0.0 **** 0.06
7376 C 59.498589929014884 25.602272769856086 95.59854728702476 C 0.0 **** -0.24
7377 H 58.697777239526715 25.564717188782964 94.85956522240497 H 0.0 **** 0.06
7378 H 59.727713061017084 26.641706465835597 95.83335366788597 H 0.0 **** 0.06
7379 H 60.38673552202732 25.114806762917233 95.19577666976448 H 0.0 **** 0.06
7380 H 59.18099544792727 25.085886710720104 96.50381796877613 H 0.0 **** 0.06
7381 C 118.38480454338071 93.53785605645254 26.931307050129078 C 0.0 **** -0.24
7382 H 118.41543414428997 93.14437643083885 27.946657445505338 H 0.0 **** 0.06
7383 H 118.4855930161776 94.6226642163646 26.95804247908987 H 0.0 **** 0.06
7384 H 117.43362052160577 93.27230088609377 26.46813287620583 H 0.0 **** 0.06
7385 H 119.20311792866343 93.11018534294284 26.351856598229006 H 0.0 **** 0.06
7386 C 67.41338511716769 21.697867483746734 45.28330781883305 C 0.0 **** -0.24
7387 H 66.74954316586712 20.836317266102014 45.211782011377096 H 0.0 **** 0.06
7388 H 66.84938280714177 22.609167456914577 45.08085868238405 H 0.0 **** 0.06
7389 H 68.21847301572795 21.597826943525888 44.55539970685852 H 0.0 **** 0.06
7390 H 67.83522797682971 21.748430727983504 46.2872136027662 H 0.0 **** 0.06
7391 C 120.16926990150182 25.986465571068067 24.277359482265695 C 0.0 **** -0.24
7392 H 119.5486478597542 26.27399408218193 23.428065349488605 H 0.0 **** 0.06
7393 H 119.57751937448549 26.034422555903177 25.191639147110607 H 0.0 **** 0.06
7394 H 121.01585657117019 26.669034585734607 24.354692667787873 H 0.0 **** 0.06
7395 H 120.53410907513205 24.96959988846129 24.13209276012344 H 0.0 **** 0.06
7396 C 105.48825978084966 98.6840699427986 35.59000008245579 C 0.0 **** -0.24
7397 H 104.70965432302427 98.1363099821948 35.05998555929075 H 0.0 **** 0.06
7398 H 106.42906631872384 98.13866675244083 35.518430101831925 H 0.0 **** 0.06
7399 H 105.20829725861105 98.78953023830223 36.638190891049376 H 0.0 **** 0.06
7400 H 105.60527862595796 99.67221958465507 35.14389273823939 H 0.0 **** 0.06
7401 C 88.71134795506333 132.57549776321494 128.39461794512766 C 0.0 **** -0.24
7402 H 89.42053775517482 133.39642412456953 128.2911840219554 H 0.0 **** 0.06
7403 H 88.44983461975886 132.19532206557594 127.40596829122825 H 0.0 **** 0.06
7404 H 87.81294168019866 132.93322117502586 128.8966577372871 H 0.0 **** 0.06
7405 H 89.16419068114274 131.77689829728655 128.9834288293088 H 0.0 **** 0.06
7406 C 89.3599987280723 45.52676114630236 7.923710879825762 C 0.0 **** -0.24
7407 H 88.3511293740446 45.11285770861322 7.940308051737446 H 0.0 **** 0.06
7408 H 90.07378565977686 44.732272824748605 7.704420205686887 H 0.0 **** 0.06
7409 H 89.5887119423819 45.96449309663279 8.895296107672834 H 0.0 **** 0.06
7410 H 89.42379552475839 46.29593973034022 7.154384476794149 H 0.0 **** 0.06
7411 C 61.50665488673154 68.27836556933244 134.3527189781303 C 0.0 **** -0.24
7412 H 62.32467301276736 67.64645754275637 134.0067934831922 H 0.0 **** 0.06
7413 H 61.90316118615614 69.23748634181817 134.68647932178675 H 0.0 **** 0.06
7414 H 60.99476525737002 67.78824988197289 135.1801109273442 H 0.0 **** 0.06
7415 H 60.80299509522543 68.44065522133417 133.53588800402702 H 0.0 **** 0.06
7416 C 141.9756588047032 118.71314979893248 85.11032393925956 C 0.0 **** -0.24
7417 H 141.01427983923404 118.66613248376481 84.59694223853276 H 0.0 **** 0.06
7418 H 142.7407084354047 118.24493915054023 84.49203220543933 H 0.0 **** 0.06
7419 H 141.90419629183214 118.18579328017518 86.06196940348406 H 0.0 **** 0.06
7420 H 142.24020283276582 119.75507138128927 85.29023982201147 H 0.0 **** 0.06
7421 C 114.69303452361805 67.46651856275882 32.03543974733208 C 0.0 **** -0.24
7422 H 115.58550407420515 66.9237278549701 32.34693325644608 H 0.0 **** 0.06
7423 H 114.92731642301118 68.08347384572366 31.167794639457867 H 0.0 **** 0.06
7424 H 114.35154667399348 68.10292163199601 32.852879708493674 H 0.0 **** 0.06
7425 H 113.90805411391261 66.75606230130077 31.776128129125624 H 0.0 **** 0.06
7426 C 110.17267731206394 103.47831394175128 126.5550096084554 C 0.0 **** -0.24
7427 H 110.92542263382708 102.79735789064873 126.95400113186722 H 0.0 **** 0.06
7428 H 110.5005795774633 103.85292488327505 125.58537689402482 H 0.0 **** 0.06
7429 H 110.04022944497453 104.3146607928995 127.24210450265801 H 0.0 **** 0.06
7430 H 109.22703311621044 102.94889124064301 126.4412269407689 H 0.0 **** 0.06
7431 C 102.84876207127044 14.739807812696228 150.26216845487244 C 0.0 **** -0.24
7432 H 103.43277209779643 14.942435510973553 149.36377478005042 H 0.0 **** 0.06
7433 H 102.95378523648932 13.689727022387899 150.5343087021148 H 0.0 **** 0.06
7434 H 101.79868547023628 14.962773055798436 150.07020095202637 H 0.0 **** 0.06
7435 H 103.20979564446245 15.36628619312873 151.07814484543357 H 0.0 **** 0.06
7436 C 25.260771368507704 119.73799600587543 137.080501377295 C 0.0 **** -0.24
7437 H 24.949364149484467 120.03121500615327 138.08331692986326 H 0.0 **** 0.06
7438 H 24.415671332830613 119.82762481065222 136.39835297231807 H 0.0 **** 0.06
7439 H 25.608299179512187 118.7046405837037 137.09608567318278 H 0.0 **** 0.06
7440 H 26.06912213009295 120.38814374596325 136.74698406782292 H 0.0 **** 0.06
7441 C 52.09196467607012 51.36574634549444 140.39476941061486 C 0.0 **** -0.24
7442 H 52.21270042130132 51.744644911504764 139.3797814207156 H 0.0 **** 0.06
7443 H 51.62133582086318 52.12899510154283 141.01372065581262 H 0.0 **** 0.06
7444 H 53.06864223049325 51.11337889021134 140.80729270437732 H 0.0 **** 0.06
7445 H 51.464197456775224 50.47372262214749 140.37655094558974 H 0.0 **** 0.06
7446 C 29.805202077169042 70.09170364691875 154.04752034173023 C 0.0 **** -0.24
7447 H 29.495152908331477 69.11293042531389 154.41101214864963 H 0.0 **** 0.06
7448 H 29.15582162398792 70.39676922672913 153.22617089517394 H 0.0 **** 0.06
7449 H 30.83591903731437 70.03887240803226 153.69568900447047 H 0.0 **** 0.06
7450 H 29.734307305826803 70.81959103305189 154.85619565452794 H 0.0 **** 0.06
7451 C 25.609504480291378 39.53463732969766 1.317735172010515 C 0.0 **** -0.24
7452 H 25.604262411430923 40.5865482596825 1.6032623528965715 H 0.0 **** 0.06
7453 H 26.533853783182742 39.30587912649129 0.7877673503452627 H 0.0 **** 0.06
7454 H 24.757947448251734 39.330819001422014 0.6686862048790658 H 0.0 **** 0.06
7455 H 25.53951131538998 38.91580514659107 2.2125589288472796 H 0.0 **** 0.06
7456 C 102.71793507713039 29.869993144775663 50.377045800702575 C 0.0 **** -0.24
7457 H 101.63020868544385 29.8040648117628 50.383571949003 H 0.0 **** 0.06
7458 H 103.03558848074806 30.703124270888623 51.005437200740516 H 0.0 **** 0.06
7459 H 103.06547703429354 30.033002916409828 49.35601283771891 H 0.0 **** 0.06
7460 H 103.1403574871764 28.942041910589552 50.761465683838026 H 0.0 **** 0.06
7461 C 155.87612010987056 61.88463887751405 104.68191113448756 C 0.0 **** -0.24
7462 H 156.48757526093053 62.45823981250372 105.37923347979773 H 0.0 **** 0.06
7463 H 156.39140814970847 60.957917732552204 104.4258153199653 H 0.0 **** 0.06
7464 H 155.7113935252092 62.470574235736564 103.77774811816585 H 0.0 **** 0.06
7465 H 154.91780381429294 61.65236684003821 105.14496231193937 H 0.0 **** 0.06
7466 C 92.55203743307287 29.894470482314688 70.34409569264949 C 0.0 **** -0.24
7467 H 92.66583975340284 29.918980872117984 69.26014913476592 H 0.0 **** 0.06
7468 H 91.77049453750627 30.59406092723499 70.64300506413234 H 0.0 **** 0.06
7469 H 93.493711164249 30.179343789580287 70.8139665857605 H 0.0 **** 0.06
7470 H 92.27852543252025 28.887835725384008 70.65717627083663 H 0.0 **** 0.06
7471 C 131.37615852134223 55.35012878064606 106.36708533683964 C 0.0 **** -0.24
7472 H 131.66747665687333 56.32846576557213 105.98553543409787 H 0.0 **** 0.06
7473 H 130.63440625729032 54.906795266339145 105.70295596621867 H 0.0 **** 0.06
7474 H 130.95091817883022 55.462013080534064 107.36480344891856 H 0.0 **** 0.06
7475 H 132.2528642563741 54.703358643873116 106.41600707983719 H 0.0 **** 0.06
7476 C 2.966706746965855 133.7388023243231 11.24604365806691 C 0.0 **** -0.24
7477 H 2.4307256482500463 134.1276476572447 10.380063615735963 H 0.0 **** 0.06
7478 H 2.3386115011506092 133.01641550786331 11.767354031797225 H 0.0 **** 0.06
7479 H 3.212419583847094 134.56023125365778 11.919159974078198 H 0.0 **** 0.06
7480 H 3.8847302873605543 133.2519436916443 10.915915913825621 H 0.0 **** 0.06
7481 C 67.45087664620208 120.45219764170417 37.58810466023108 C 0.0 **** -0.24
7482 H 66.46898126138511 120.90375259090095 37.72777004490463 H 0.0 **** 0.06
7483 H 67.44232700000211 119.83637849377087 36.68933076971312 H 0.0 **** 0.06
7484 H 67.69104264958463 119.8323874158107 38.452372819879415 H 0.0 **** 0.06
7485 H 68.20027070283027 121.237342329446 37.48496281322416 H 0.0 **** 0.06
7486 C 71.88361911938833 99.28129273166508 119.06136466866354 C 0.0 **** -0.24
7487 H 71.66970820795868 98.58829526033736 118.2470683391989 H 0.0 **** 0.06
7488 H 70.9485722498167 99.70076336717636 119.43451696474392 H 0.0 **** 0.06
7489 H 72.52252409898777 100.08444099029816 118.69613581788303 H 0.0 **** 0.06
7490 H 72.39051223811228 98.74957174505505 119.86612239020042 H 0.0 **** 0.06
7491 C 129.71430069399167 141.26439489488547 159.17751886057036 C 0.0 **** -0.24
7492 H 128.92977054051894 140.97944039738198 158.47629761340542 H 0.0 **** 0.06
7493 H 130.67926467438764 141.23921652929934 158.6722037182106 H 0.0 **** 0.06
7494 H 129.7238482914902 140.56712156906383 160.01524411819406 H 0.0 **** 0.06
7495 H 129.52272719599605 142.272363096704 159.54594329650868 H 0.0 **** 0.06
7496 C 89.30534838642146 121.34516280308799 89.75559087238607 C 0.0 **** -0.24
7497 H 89.65017563128711 120.31731656499684 89.87093017744803 H 0.0 **** 0.06
7498 H 88.96138385865889 121.50087123831688 88.7330400693941 H 0.0 **** 0.06
7499 H 90.1254044535188 122.02955253680048 89.97188137577156 H 0.0 **** 0.06
7500 H 88.48429003911698 121.53177907380342 90.44843532874341 H 0.0 **** 0.06
7501 C 42.629214498599026 117.66445119502328 85.0097633229791 C 0.0 **** -0.24
7502 H 41.97866879140916 116.79971268271925 84.88296658546008 H 0.0 **** 0.06
7503 H 43.00449628503338 117.68919636883851 86.03265926239357 H 0.0 **** 0.06
7504 H 42.06664258995431 118.57573262418128 84.80697067349854 H 0.0 **** 0.06
7505 H 43.46789474462362 117.59263753127618 84.31656051874353 H 0.0 **** 0.06
7506 C 124.74422989324131 71.88446700184852 99.3381068765508 C 0.0 **** -0.24
7507 H 124.21977583703108 70.928360621182 99.32808571964495 H 0.0 **** 0.06
7508 H 124.42539395140705 72.46493512159269 100.2046230626296 H 0.0 **** 0.06
7509 H 124.51336391212425 72.43466879903885 98.4265451930948 H 0.0 **** 0.06
7510 H 125.81814292602667 71.70785832071293 99.3940444558757 H 0.0 **** 0.06
7511 C 30.289890485454123 139.91573327702963 123.50373834482596 C 0.0 **** -0.24
7512 H 29.89951673661764 138.92730959139556 123.26328298029662 H 0.0 **** 0.06
7513 H 30.936885647613252 139.84811033767122 124.37857905420623 H 0.0 **** 0.06
7514 H 29.461411299428505 140.59167770414953 123.71536590576551 H 0.0 **** 0.06
7515 H 30.861236888290563 140.29562355467925 122.6564240355477 H 0.0 **** 0.06
7516 C 26.741285933376453 109.88531520975062 87.77598727781127 C 0.0 **** -0.24
7517 H 26.584507047374387 110.62036244349758 88.56665209870526 H 0.0 **** 0.06
7518 H 27.740679155622544 109.45976896560546 87.86938134785973 H 0.0 **** 0.06
7519 H 26.642231698836156 110.37152811531087 86.80527509755105 H 0.0 **** 0.06
7520 H 25.998251100614944 109.09282346311682 87.86379910653726 H 0.0 **** 0.06
7521 C 75.27172402658935 111.54828648747093 160.4558663154963 C 0.0 **** -0.24
7522 H 75.21069902957845 110.99903279686919 159.51654625414875 H 0.0 **** 0.06
7523 H 76.28116658251821 111.93827139307928 160.58416026730464 H 0.0 **** 0.06
7524 H 75.03243601637926 110.88031352326306 161.2841900851471 H 0.0 **** 0.06
7525 H 74.56195112867024 112.37540914181716 160.4398224410795 H 0.0 **** 0.06
7526 C 112.61419444417939 137.49949454546456 136.9410423650909 C 0.0 **** -0.24
7527 H 112.8555030255718 136.43640540221924 136.91905324966473 H 0.0 **** 0.06
7528 H 111.56159043528729 137.6374898182194 136.69584258520416 H 0.0 **** 0.06
7529 H 113.23059095261817 138.02728215476674 136.21406684526167 H 0.0 **** 0.06
7530 H 112.80969078120069 137.89455971913944 137.9381429411721 H 0.0 **** 0.06
7531 C 147.16830022402291 8.139267342883073 11.895115100724325 C 0.0 **** -0.24
7532 H 147.24014565665686 8.74497942426305 10.991805651192692 H 0.0 **** 0.06
7533 H 147.3141265141976 8.773557588386183 12.770032504063778 H 0.0 **** 0.06
7534 H 147.936203143586 7.365299605277784 11.875597602232745 H 0.0 **** 0.06
7535 H 146.18463762380782 7.6737975471219215 11.943183465413966 H 0.0 **** 0.06
7536 C 36.00494914684157 108.90456827521103 153.67227295560883 C 0.0 **** -0.24
7537 H 36.32845704496606 108.60912579857464 152.67470430728662 H 0.0 **** 0.06
7538 H 35.0942461533931 109.4995318868902 153.5966538844972 H 0.0 **** 0.06
7539 H 36.78616454549703 109.49540401792004 154.14887911874314 H 0.0 **** 0.06
7540 H 35.807974491363325 108.01364307038381 154.26788028938296 H 0.0 **** 0.06
7541 C 50.66301741522955 59.22094454447334 91.91680101206353 C 0.0 **** -0.24
7542 H 51.18602337862501 59.106048545712454 90.9669881088401 H 0.0 **** 0.06
7543 H 51.266730301464406 58.7964881879026 92.71816383214995 H 0.0 **** 0.06
7544 H 49.70529612496631 58.70257477706207 91.8678972580216 H 0.0 **** 0.06
7545 H 50.49338588361911 60.27988248669678 92.11082014467894 H 0.0 **** 0.06
7546 C 28.37193942618429 160.45260899574123 113.24561205230768 C 0.0 **** -0.24
7547 H 28.939284916770866 160.35732468113184 114.17201902682513 H 0.0 **** 0.06
7548 H 27.917403453174046 161.44336721651717 113.20022352532226 H 0.0 **** 0.06
7549 H 27.591170359274308 159.69252092396755 113.21719296701224 H 0.0 **** 0.06
7550 H 29.040532705384265 160.3202621877084 112.39510150020149 H 0.0 **** 0.06
7551 C 25.24730217535091 69.87878360876493 28.196050551929822 C 0.0 **** -0.24
7552 H 24.458915762036213 69.76781877897832 27.452760922812942 H 0.0 **** 0.06
7553 H 25.699173750536374 70.86641345887844 28.101996179282494 H 0.0 **** 0.06
7554 H 26.00729813070913 69.11397036797564 28.037441920336143 H 0.0 **** 0.06
7555 H 24.822786270038733 69.76656479768297 29.19419286164456 H 0.0 **** 0.06
7556 C 12.426732520136795 28.388989097318188 123.12850091265804 C 0.0 **** -0.24
7557 H 11.582905311728155 28.08052851840091 122.51127763769054 H 0.0 **** 0.06
7558 H 12.472239899995486 27.762770747860998 124.0193345133469 H 0.0 **** 0.06
7559 H 12.299726576280193 29.430722832445127 123.42241273585253 H 0.0 **** 0.06
7560 H 13.350089171502987 28.28174700986503 122.56068277558643 H 0.0 **** 0.06
7561 C 154.94593208768447 124.44049873270197 96.65836790833521 C 0.0 **** -0.24
7562 H 154.6431026699544 123.48612365176683 97.08728906254555 H 0.0 **** 0.06
7563 H 155.87087650606665 124.3082555480182 96.09458559026075 H 0.0 **** 0.06
7564 H 155.10728470498083 125.1638127168514 97.45775772147329 H 0.0 **** 0.06
7565 H 154.16367880824885 124.80369740597902 95.99196459114756 H 0.0 **** 0.06
7566 C 30.148153597706795 99.82970537780801 148.7762791005955 C 0.0 **** -0.24
7567 H 29.733795432088186 98.82106342872555 148.77937974199398 H 0.0 **** 0.06
7568 H 29.38919537481047 100.53337678921326 148.43409373943007 H 0.0 **** 0.06
7569 H 31.0066387543132 99.86693150642748 148.10649460264642 H 0.0 **** 0.06
7570 H 30.462082723744146 100.09566503777296 149.78517988401097 H 0.0 **** 0.06
7571 C 157.67730329764794 156.44923778214894 137.11388211333016 C 0.0 **** -0.24
7572 H 157.45688010928419 157.089495901003 136.25979311817818 H 0.0 **** 0.06
7573 H 158.73508769502283 156.528846992945 137.3648550243749 H 0.0 **** 0.06
7574 H 157.43891071207852 155.4161330661093 136.86319217947113 H 0.0 **** 0.06
7575 H 157.07656500237394 156.76467760661683 137.96755482879945 H 0.0 **** 0.06
7576 C 66.24586165726456 69.4221669622446 7.142336973718955 C 0.0 **** -0.24
7577 H 67.25762487006155 69.08269002929819 6.92261114098315 H 0.0 **** 0.06
7578 H 66.19891148861959 70.50796949447647 7.0488412346880125 H 0.0 **** 0.06
7579 H 65.97831377120953 69.132699050202 8.158569384372583 H 0.0 **** 0.06
7580 H 65.54925680071985 68.96651474790212 6.438993122359534 H 0.0 **** 0.06
7581 C 116.69155333219442 70.14414139079511 28.373307055900227 C 0.0 **** -0.24
7582 H 117.55559770927653 69.59672196384382 28.749812219421415 H 0.0 **** 0.06
7583 H 116.6022761799527 69.98769737789985 27.298296490118105 H 0.0 **** 0.06
7584 H 116.81911817338744 71.20758527256213 28.577339403923645 H 0.0 **** 0.06
7585 H 115.79016844964451 69.78484102843012 28.870021667625508 H 0.0 **** 0.06
7586 C 44.27867591731538 66.53573555605988 103.03377920532253 C 0.0 **** -0.24
7587 H 43.87057551755947 65.5324528450302 102.91237198098207 H 0.0 **** 0.06
7588 H 45.245051381965055 66.47596343773284 103.53622090882189 H 0.0 **** 0.06
7589 H 43.593777776188006 67.13645337220214 103.63216494617947 H 0.0 **** 0.06
7590 H 44.40675671378884 66.99714878499702 102.0545065144614 H 0.0 **** 0.06
7591 C 65.37499342998038 74.64909257309091 12.043575362310044 C 0.0 **** -0.24
7592 H 64.96719404184907 75.02922799566437 11.106321069143576 H 0.0 **** 0.06
7593 H 66.25315502580158 75.23311189470536 12.319949231205939 H 0.0 **** 0.06
7594 H 65.6567911741409 73.60349510039157 11.9193746674244 H 0.0 **** 0.06
7595 H 64.62256916851355 74.73217081639012 12.827154688302855 H 0.0 **** 0.06
7596 C 5.732990890140854 141.6456295129396 118.75768706154247 C 0.0 **** -0.24
7597 H 5.097732792439253 142.1601272586094 119.47858169345216 H 0.0 **** 0.06
7598 H 5.109140880796367 141.1496133323784 118.01383426460006 H 0.0 **** 0.06
7599 H 6.341833419161169 140.90499817038122 119.27355212320833 H 0.0 **** 0.06
7600 H 6.380988249884453 142.3695149610749 118.26386206648584 H 0.0 **** 0.06
7601 C 151.41402227952256 46.747615328566866 81.54147165050686 C 0.0 **** -0.24
7602 H 151.67101432570433 47.64258054704271 80.97399193267118 H 0.0 **** 0.06
7603 H 151.30563125280443 45.903591930005376 80.86057464424844 H 0.0 **** 0.06
7604 H 150.47523868660147 46.91134894005154 82.07009297980943 H 0.0 **** 0.06
7605 H 152.2041676070017 46.53576791656451 82.26126111095037 H 0.0 **** 0.06
7606 C 77.53360224134293 13.351948456508836 112.50081178718668 C 0.0 **** -0.24
7607 H 76.57187131202065 13.4695481344975 112.00354150976446 H 0.0 **** 0.06
7608 H 78.29479567254567 13.092869694046215 111.76314472872562 H 0.0 **** 0.06
7609 H 77.46420334404512 12.558055306669786 113.2447542100918 H 0.0 **** 0.06
7610 H 77.80603318109185 14.285991364979708 112.99190859630068 H 0.0 **** 0.06
7611 C 51.55116625265063 78.31823068901775 40.81694146356068 C 0.0 **** -0.24
7612 H 51.35416723970184 77.99415245978722 41.83867456776886 H 0.0 **** 0.06
7613 H 52.5634135417431 78.72005941521871 40.752149311025704 H 0.0 **** 0.06
7614 H 50.83475832660241 79.09096180019816 40.537378981295234 H 0.0 **** 0.06
7615 H 51.45307087816019 77.46942652031244 40.14118514992049 H 0.0 **** 0.06
7616 C 86.91028856643968 100.24512631896232 56.60942353162142 C 0.0 **** -0.24
7617 H 87.9082782916036 100.1406496010282 57.034675185104334 H 0.0 **** 0.06
7618 H 86.16846417209983 100.18595463649163 57.405580628460214 H 0.0 **** 0.06
7619 H 86.73673120739936 99.4448212279548 55.8898149777944 H 0.0 **** 0.06
7620 H 86.82802123918891 101.20897443216481 56.10625478951371 H 0.0 **** 0.06
7621 C 38.405709044649115 26.342605271461792 148.69954362520207 C 0.0 **** -0.24
7622 H 37.41617849330244 26.510132363572424 148.27310037331944 H 0.0 **** 0.06
7623 H 38.71458499447752 27.227590001860385 149.25824086901383 H 0.0 **** 0.06
7624 H 39.118650310924934 26.150706208975542 147.89903735368802 H 0.0 **** 0.06
7625 H 38.371605506205015 25.484094104853206 149.3703024357857 H 0.0 **** 0.06
7626 C 93.22498374311289 112.2663140748719 108.77965491160853 C 0.0 **** -0.24
7627 H 94.26458935486043 112.20561443701769 109.10183589615764 H 0.0 **** 0.06
7628 H 92.63831316534319 112.77982498857921 109.54189113094031 H 0.0 **** 0.06
7629 H 92.83104620903762 111.26101375249459 108.63284103324156 H 0.0 **** 0.06
7630 H 93.16732757958692 112.8191588804915 107.8417789828099 H 0.0 **** 0.06
7631 C 136.1016325292656 109.45615053167325 162.0275881679539 C 0.0 **** -0.24
7632 H 136.3484040362643 108.79022921181445 162.85393642851756 H 0.0 **** 0.06
7633 H 135.49040797147802 108.92239837793366 161.29946039689725 H 0.0 **** 0.06
7634 H 137.0197859900336 109.79906087111792 161.55047122058824 H 0.0 **** 0.06
7635 H 135.54722444136462 110.31570759092892 162.40731735992594 H 0.0 **** 0.06
7636 C 45.23002783585126 82.03569015807508 162.49787759489274 C 0.0 **** -0.24
7637 H 45.4737105149981 81.06457806162204 162.92777860482573 H 0.0 **** 0.06
7638 H 44.7277177376498 81.89415036562333 161.54149070885177 H 0.0 **** 0.06
7639 H 46.14702651166289 82.60549196368204 162.34574211246644 H 0.0 **** 0.06
7640 H 44.57365362367965 82.5789106514215 163.17743423959723 H 0.0 **** 0.06
7641 C 88.62819531092606 36.88908012406604 27.859050463873928 C 0.0 **** -0.24
7642 H 88.22845715228607 37.284638225117334 28.792346250242474 H 0.0 **** 0.06
7643 H 87.95290254260067 37.13799108323313 27.039877164066297 H 0.0 **** 0.06
7644 H 88.72421726396334 35.80594165679466 27.934599796120267 H 0.0 **** 0.06
7645 H 89.60851332210984 37.32746554912285 27.66892495348725 H 0.0 **** 0.06
7646 C 143.78909299879484 35.56503254311622 110.07036738276298 C 0.0 **** -0.24
7647 H 143.45959204005572 34.557340973025646 110.32166729397946 H 0.0 **** 0.06
7648 H 144.63547792595278 35.83856033408102 110.70162644682483 H 0.0 **** 0.06
7649 H 142.971143347086 36.26664936257873 110.23554933284467 H 0.0 **** 0.06
7650 H 144.09051256576868 35.598031254250884 109.02391903131058 H 0.0 **** 0.06
7651 C 156.3978276272403 128.34861147919236 98.80665039287743 C 0.0 **** -0.24
7652 H 155.82638008608382 128.56821459756878 99.70896910586484 H 0.0 **** 0.06
7653 H 156.48548158632076 129.25179110469253 98.20379869837808 H 0.0 **** 0.06
7654 H 155.88670313130126 127.57591160424568 98.23315629364396 H 0.0 **** 0.06
7655 H 157.39151544112218 127.99700489136097 99.08370486907313 H 0.0 **** 0.06
7656 C 119.26199544029404 27.00775704688983 29.886043824439326 C 0.0 **** -0.24
7657 H 119.606205256685 26.288920410032212 30.630045415240488 H 0.0 **** 0.06
7658 H 119.50090078930748 28.018129687433103 30.22010408890975 H 0.0 **** 0.06
7659 H 118.1834472513375 26.912378456748066 29.760287763622614 H 0.0 **** 0.06
7660 H 119.75773545487979 26.811881951530637 28.935694090737172 H 0.0 **** 0.06
7661 C 151.06629243591283 114.7217812355691 59.15667953105445 C 0.0 **** -0.24
7662 H 151.23083426358153 115.79804149347339 59.206945773428174 H 0.0 **** 0.06
7663 H 150.26226310469508 114.44569771954954 59.84028441688726 H 0.0 **** 0.06
7664 H 151.9809457561256 114.20104819543292 59.44089823851549 H 0.0 **** 0.06
7665 H 150.79001085155 114.44387067717582 58.13977488937718 H 0.0 **** 0.06
7666 C 15.028923544957536 96.01658495757734 35.37275357330219 C 0.0 **** -0.24
7667 H 15.989346470607046 96.5199884912762 35.484052923948624 H 0.0 **** 0.06
7668 H 14.954796291313556 95.2105241490322 36.10328283571165 H 0.0 **** 0.06
7669 H 14.950839726443803 95.60322839538436 34.366779343454496 H 0.0 **** 0.06
7670 H 14.222330745311922 96.73088382736356 35.536237576124606 H 0.0 **** 0.06
7671 C 30.874719733266204 144.5395905514157 82.45345001984218 C 0.0 **** -0.24
7672 H 31.146520922479283 145.53790989841156 82.10775143886438 H 0.0 **** 0.06
7673 H 29.95060010195749 144.2272266618789 81.9678570407754 H 0.0 **** 0.06
7674 H 30.73120909029751 144.55661399165137 83.53367256339253 H 0.0 **** 0.06
7675 H 31.672982881437804 143.8400203941007 82.20384348540962 H 0.0 **** 0.06
7676 C 73.25025140764276 56.4133332843558 130.8942951431191 C 0.0 **** -0.24
7677 H 72.72970329271789 55.49247304815492 131.15507839972244 H 0.0 **** 0.06
7678 H 72.64798171726267 57.269436742524306 131.19818482953374 H 0.0 **** 0.06
7679 H 73.41216390767767 56.44635249715867 129.81709557171772 H 0.0 **** 0.06
7680 H 74.21173226701461 56.444707551856155 131.40755442586564 H 0.0 **** 0.06
7681 C 8.079617758807949 86.67861350510225 18.527434994119723 C 0.0 **** -0.24
7682 H 7.165810762306556 87.1532826591581 18.884499155854222 H 0.0 **** 0.06
7683 H 8.691319221035613 87.41492370267348 18.00587437668851 H 0.0 **** 0.06
7684 H 7.824736162100621 85.86769959426766 17.846174534887183 H 0.0 **** 0.06
7685 H 8.63586361058156 86.27936159271336 19.375982777783307 H 0.0 **** 0.06
7686 C 97.6259041271664 56.722844081532344 129.7858001903266 C 0.0 **** -0.24
7687 H 98.51507354971466 56.31358322437599 129.30564900413225 H 0.0 **** 0.06
7688 H 97.40263660899984 56.148334359692086 130.6857930263616 H 0.0 **** 0.06
7689 H 96.78261559308561 56.664074092233406 129.0976582039903 H 0.0 **** 0.06
7690 H 97.80463333887684 57.763748820246605 130.0533782484664 H 0.0 **** 0.06
7691 C 162.05188496752248 130.78854079734083 33.61749878190078 C 0.0 **** -0.24
7692 H 161.575583993792 131.7353158117533 33.36168766407994 H 0.0 **** 0.06
7693 H 163.01939725133388 130.98217837476466 34.08168554780585 H 0.0 **** 0.06
7694 H 162.1942960113263 130.19784622931678 32.71243475927531 H 0.0 **** 0.06
7695 H 161.41862497897432 130.2397983620453 34.3132295663582 H 0.0 **** 0.06
7696 C 131.78756730729074 118.99163501141123 103.13244574350776 C 0.0 **** -0.24
7697 H 131.69054116677069 117.93121022150132 102.90003437608422 H 0.0 **** 0.06
7698 H 131.69043549572038 119.57478951223078 102.21595780793152 H 0.0 **** 0.06
7699 H 132.76461467822506 119.17732699370404 103.57895754609328 H 0.0 **** 0.06
7700 H 131.00672818121805 119.28312318230928 103.83394536669388 H 0.0 **** 0.06
7701 C 54.18541386428106 107.51038748693892 156.16295740701594 C 0.0 **** -0.24
7702 H 54.295803623574784 106.70579171956987 156.8892470025187 H 0.0 **** 0.06
7703 H 53.20195913434884 107.44737370715075 155.69685235140668 H 0.0 **** 0.06
7704 H 54.955917573325195 107.41757205992656 155.39721384457752 H 0.0 **** 0.06
7705 H 54.288241571870174 108.47198159987403 156.66662903135742 H 0.0 **** 0.06
7706 C 6.729122190653314 47.32654962759409 156.8684757535347 C 0.0 **** -0.24
7707 H 6.447765981662272 47.875495785867656 157.76620489093858 H 0.0 **** 0.06
7708 H 5.9177771083821185 47.378000168213475 156.14217150211937 H 0.0 **** 0.06
7709 H 6.923377888055107 46.285016195884 157.1252980697646 H 0.0 **** 0.06
7710 H 7.629666482096475 47.76832386538712 156.43979357227988 H 0.0 **** 0.06
7711 C 60.65436823188949 115.3790559011479 39.30963825098445 C 0.0 **** -0.24
7712 H 59.7977183628784 115.72288793604457 39.888686925464825 H 0.0 **** 0.06
7713 H 60.87173463644069 114.34163368929501 39.56350800425545 H 0.0 **** 0.06
7714 H 61.521283384520004 115.99934703606718 39.5410900503438 H 0.0 **** 0.06
7715 H 60.427697466845274 115.45361781355263 38.24596219656064 H 0.0 **** 0.06
7716 C 67.40072810047627 71.87470056779955 63.3531410474143 C 0.0 **** -0.24
7717 H 67.45566410162039 72.36830177450781 62.38321851466888 H 0.0 **** 0.06
7718 H 67.21868975580276 72.61807997067172 64.12957776443116 H 0.0 **** 0.06
7719 H 68.34292951492637 71.3632268551359 63.553919628967705 H 0.0 **** 0.06
7720 H 66.58806036846698 71.14896879013475 63.346043731908864 H 0.0 **** 0.06
7721 C 95.22988293866516 23.318291091996514 151.42731969973488 C 0.0 **** -0.24
7722 H 96.30640356621285 23.345656142273697 151.59307650586612 H 0.0 **** 0.06
7723 H 94.99798451362406 23.781362472469027 150.46777246362313 H 0.0 **** 0.06
7724 H 94.72608039205143 23.863245900405843 152.225671194006 H 0.0 **** 0.06
7725 H 94.88906328277234 22.282899852837318 151.42275863544444 H 0.0 **** 0.06
7726 C 145.05749431360562 18.156377844442027 63.90784245867553 C 0.0 **** -0.24
7727 H 144.51146050933818 17.216843581723914 63.989281342552985 H 0.0 **** 0.06
7728 H 146.11234521423833 17.94892699540818 63.72606347383022 H 0.0 **** 0.06
7729 H 144.9521223311221 18.719676837436694 64.83451382239154 H 0.0 **** 0.06
7730 H 144.65327276583625 18.740156545083707 63.08033279049074 H 0.0 **** 0.06
7731 C 43.55864438325686 81.98396367102846 80.19011902112423 C 0.0 **** -0.24
7732 H 43.372703850630344 83.04634907147842 80.34159567671873 H 0.0 **** 0.06
7733 H 44.632811693658155 81.80991258267933 80.1232484082356 H 0.0 **** 0.06
7734 H 43.079706563760666 81.6588999027988 79.26668361036113 H 0.0 **** 0.06
7735 H 43.1508567423911 81.41988462747118 81.02925246947343 H 0.0 **** 0.06
7736 C 70.37613027918505 29.175546549457863 144.66604476701093 C 0.0 **** -0.24
7737 H 71.45554111599478 29.038778195904797 144.60170570540444 H 0.0 **** 0.06
7738 H 69.94067269127038 28.3592914881483 145.24191819279818 H 0.0 **** 0.06
7739 H 69.95051395421166 29.18089611900939 143.6622908131124 H 0.0 **** 0.06
7740 H 70.1601508851976 30.12387633147773 145.15815490023604 H 0.0 **** 0.06
7741 C 4.825249622291267 68.79756230853484 87.59178705257646 C 0.0 **** -0.24
7742 H 5.794993341574923 68.31804415776084 87.45739833686494 H 0.0 **** 0.06
7743 H 4.610845981606246 68.89130446989418 88.65748889344036 H 0.0 **** 0.06
7744 H 4.051775070802307 68.19275966294875 87.11771242244482 H 0.0 **** 0.06
7745 H 4.843073736024621 69.78813994801624 87.13652436041089 H 0.0 **** 0.06
7746 C 52.09592192170339 137.17326493236476 8.800948563478215 C 0.0 **** -0.24
7747 H 52.65290557860794 138.05747447599202 8.489327677016234 H 0.0 **** 0.06
7748 H 52.336455565865435 136.93846254402902 9.837717223110303 H 0.0 **** 0.06
7749 H 52.36579823066643 136.33128608727768 8.164816338541868 H 0.0 **** 0.06
7750 H 51.027178768934334 137.36835164495216 8.711009074568409 H 0.0 **** 0.06
7751 C 80.681711047625 76.05448447423214 131.73152683356506 C 0.0 **** -0.24
7752 H 80.91403819916837 76.14529320467125 130.67039596104257 H 0.0 **** 0.06
7753 H 81.39077619123275 76.64743113811397 132.31000566534743 H 0.0 **** 0.06
7754 H 80.75172009680578 75.00890281168586 132.02997540380272 H 0.0 **** 0.06
7755 H 79.67100369029866 76.41820812961976 131.91375077244788 H 0.0 **** 0.06
7756 C 39.67060383954987 82.31249617747983 63.96704211530495 C 0.0 **** -0.24
7757 H 39.772866932389206 83.06334677156437 64.75179402546429 H 0.0 **** 0.06
7758 H 40.0729528548124 82.70626044900928 63.03390449867133 H 0.0 **** 0.06
7759 H 38.61767579781355 82.0669228393404 63.83502666616775 H 0.0 **** 0.06
7760 H 40.221333149306986 81.41504729373747 64.25054804866598 H 0.0 **** 0.06
7761 C 40.679672082425185 159.33199663010578 20.289444989262833 C 0.0 **** -0.24
7762 H 41.66892187100305 159.43416538957356 20.734967423540674 H 0.0 **** 0.06
7763 H 39.93684258473263 159.78799919830345 20.944286851573175 H 0.0 **** 0.06
7764 H 40.447472100316475 158.2752701308981 20.156971855626196 H 0.0 **** 0.06
7765 H 40.66508801879854 159.83095735770968 19.320715234115987 H 0.0 **** 0.06
7766 C 71.88138883595849 14.140269699952668 142.5835824741407 C 0.0 **** -0.24
7767 H 71.52783231695025 14.894044097170955 143.2876810659175 H 0.0 **** 0.06
7768 H 71.07551846807559 13.87712978720792 141.89912928835332 H 0.0 **** 0.06
7769 H 72.19818689899857 13.251822228637423 143.13196737911483 H 0.0 **** 0.06
7770 H 72.72437883981227 14.538318580426527 142.01926892597817 H 0.0 **** 0.06
7771 C 138.84266916293333 31.431906460198462 159.0190727576918 C 0.0 **** -0.24
7772 H 138.3651268262884 30.54829941625752 158.5945992117712 H 0.0 **** 0.06
7773 H 139.47116164514932 31.135996914106897 159.8592969001125 H 0.0 **** 0.06
7774 H 138.07843630760607 32.12772354664071 159.3630720804835 H 0.0 **** 0.06
7775 H 139.4565743955223 31.91315707995585 158.2577055242942 H 0.0 **** 0.06
7776 C 138.4382036738406 133.83349999801024 142.07390526888895 C 0.0 **** -0.24
7777 H 138.09911519313914 133.96387913712252 143.1012835437453 H 0.0 **** 0.06
7778 H 139.25870125116606 133.11593763266242 142.0503924994047 H 0.0 **** 0.06
7779 H 138.7807540753902 134.79142908628089 141.68028490027737 H 0.0 **** 0.06
7780 H 137.6140412476973 133.46447425154287 141.46367077227058 H 0.0 **** 0.06
7781 C 116.43120327344036 115.3709005577955 137.31007292998325 C 0.0 **** -0.24
7782 H 115.3752129304377 115.63622007668135 137.2894152693975 H 0.0 **** 0.06
7783 H 116.56320810787005 114.44932712739211 137.87754716861932 H 0.0 **** 0.06
7784 H 116.99826627406006 116.1730982928081 137.7837281244818 H 0.0 **** 0.06
7785 H 116.78968389115519 115.22571768022567 136.290597839926 H 0.0 **** 0.06
7786 C 153.70943013695438 138.91552195538208 20.317819549442284 C 0.0 **** -0.24
7787 H 154.15697783269508 138.57006087582977 21.249531171776432 H 0.0 **** 0.06
7788 H 154.07412102774143 139.9178575258047 20.089132272057697 H 0.0 **** 0.06
7789 H 152.62436724541425 138.93870265536464 20.42402249159734 H 0.0 **** 0.06
7790 H 153.98121773917046 138.2365504897012 19.509458794278068 H 0.0 **** 0.06
7791 C 21.129591668138303 46.724462516539916 111.92657606943587 C 0.0 **** -0.24
7792 H 20.130799841830544 46.851715664661356 111.51104348357313 H 0.0 **** 0.06
7793 H 21.847129301687254 47.28412961014209 111.3265307829075 H 0.0 **** 0.06
7794 H 21.39499449302607 45.667846077980585 111.91804006111178 H 0.0 **** 0.06
7795 H 21.1456346423588 47.094556583453596 112.95203347044043 H 0.0 **** 0.06
7796 C 12.595139448166549 125.0161479817985 161.25217082198634 C 0.0 **** -0.24
7797 H 11.553133004035288 125.15712389312827 161.53715184137008 H 0.0 **** 0.06
7798 H 13.130396547949289 125.96138306887843 161.3541286146289 H 0.0 **** 0.06
7799 H 12.646294789020544 124.67948904351962 160.21718979930813 H 0.0 **** 0.06
7800 H 13.05119164494107 124.26853341487737 161.90040355744094 H 0.0 **** 0.06
7801 C 103.08979725731086 116.79674619453192 58.107161813913194 C 0.0 **** -0.24
7802 H 103.10113471815373 117.69324305850984 57.48722738808573 H 0.0 **** 0.06
7803 H 104.10445405941269 116.57111470123579 58.43781557454412 H 0.0 **** 0.06
7804 H 102.70021313004952 115.9597288821754 57.528350047254946 H 0.0 **** 0.06
7805 H 102.45348471446556 116.96587257655369 58.97671831961827 H 0.0 **** 0.06
7806 C 53.676337684485475 99.98110421496378 50.63339001912868 C 0.0 **** -0.24
7807 H 53.258765101026725 100.05407295987197 49.62956606387891 H 0.0 **** 0.06
7808 H 54.45339344133559 100.73522714111621 50.75897594405285 H 0.0 **** 0.06
7809 H 54.10608864242192 98.98899677826643 50.77642793007607 H 0.0 **** 0.06
7810 H 52.88852447659157 100.14525078665713 51.36811519743233 H 0.0 **** 0.06
7811 C 81.02263849574084 76.44716210943439 13.983800244509354 C 0.0 **** -0.24
7812 H 80.69100911661337 77.2272281433425 14.66995243555283 H 0.0 **** 0.06
7813 H 80.25431539651689 76.27795756817302 13.228621240008096 H 0.0 **** 0.06
7814 H 81.19508421647744 75.52470125384885 14.53877260078633 H 0.0 **** 0.06
7815 H 81.94691943590713 76.75823249159158 13.499376106784382 H 0.0 **** 0.06
7816 C 149.94218842768623 7.400626850745709 134.25651715562697 C 0.0 **** -0.24
7817 H 150.61519156814785 6.736376092217995 134.79964843844107 H 0.0 **** 0.06
7818 H 149.16569252934056 6.8115899135154905 133.76984845750022 H 0.0 **** 0.06
7819 H 150.5065978920316 7.952001904408064 133.5043546936126 H 0.0 **** 0.06
7820 H 149.4845906350502 8.102700398511615 134.9539373070329 H 0.0 **** 0.06
7821 C 66.68761099479893 43.79199846249871 130.63933038624594 C 0.0 **** -0.24
7822 H 66.82318388360474 44.733026208406145 131.1725054342149 H 0.0 **** 0.06
7823 H 65.87906611929128 43.897741745457864 129.91602657864783 H 0.0 **** 0.06
7824 H 66.43845932313657 43.00497625837805 131.3511529433059 H 0.0 **** 0.06
7825 H 67.6096546109113 43.53297448800451 130.11997504266986 H 0.0 **** 0.06
7826 C 9.425255043641954 159.84336750443526 132.7784627710607 C 0.0 **** -0.24
7827 H 8.628080182481995 159.12778968725164 132.97707155857228 H 0.0 **** 0.06
7828 H 9.019951952139508 160.85560138815487 132.8031379948328 H 0.0 **** 0.06
7829 H 9.85316582912418 159.64678868105537 131.79554722286534 H 0.0 **** 0.06
7830 H 10.201221647386689 159.74345036478698 133.5382208169799 H 0.0 **** 0.06
7831 C 68.842779379648 148.84804451066918 158.91701096951778 C 0.0 **** -0.24
7832 H 69.30492723242867 149.7623748627226 159.2876134383722 H 0.0 **** 0.06
7833 H 67.76860442670036 149.00055258083896 158.8129181734979 H 0.0 **** 0.06
7834 H 69.02867194645214 148.03577459255237 159.62002903745235 H 0.0 **** 0.06
7835 H 69.2693467676632 148.5926129698093 157.94644985332218 H 0.0 **** 0.06
7836 C 115.05903535661287 2.27731802727169 152.08404004748604 C 0.0 **** -0.24
7837 H 113.97866754643724 2.144985573666645 152.01706687932256 H 0.0 **** 0.06
7838 H 115.2839072637612 3.075449313421359 152.79123232634015 H 0.0 **** 0.06
7839 H 115.45470719204093 2.5383625628786604 151.10287370917806 H 0.0 **** 0.06
7840 H 115.5177628175436 1.3485359771955814 152.42518505556177 H 0.0 **** 0.06
7841 C 132.77053632931364 102.74091907106543 119.91740707979068 C 0.0 **** -0.24
7842 H 132.06601582224096 103.17242057038266 119.20691841414487 H 0.0 **** 0.06
7843 H 132.74403888485216 103.31114919016954 120.84607082841217 H 0.0 **** 0.06
7844 H 133.77601369542697 102.77447911598972 119.49811500982878 H 0.0 **** 0.06
7845 H 132.4955154603735 101.7059488071809 120.11776150427636 H 0.0 **** 0.06
7846 C 50.271066150347735 10.718009983593632 1.7365105012185182 C 0.0 **** -0.24
7847 H 49.699004423874925 11.55079251722836 1.3279771782567877 H 0.0 **** 0.06
7848 H 50.14317416046396 9.84293634781907 1.0990031368765614 H 0.0 **** 0.06
7849 H 49.914109318913546 10.490316090138258 2.7410522749996318 H 0.0 **** 0.06
7850 H 51.32562752267313 10.987304997887456 1.7780834520136395 H 0.0 **** 0.06
7851 C 84.53840832749957 14.671081035784255 43.150865404140205 C 0.0 **** -0.24
7852 H 83.57727886102934 14.158612675720008 43.114669099054936 H 0.0 **** 0.06
7853 H 85.08697137031645 14.351690850129131 44.0369005896043 H 0.0 **** 0.06
7854 H 84.37515090129894 15.747676286660123 43.19193258328224 H 0.0 **** 0.06
7855 H 85.11445590165162 14.425033060799052 42.25816193821724 H 0.0 **** 0.06
7856 C 117.77303431097533 161.47930182057954 138.37440764069606 C 0.0 **** -0.24
7857 H 118.11176261539762 161.16736066161727 139.36145862776004 H 0.0 **** 0.06
7858 H 117.52166723641596 160.5988280233387 137.78187208494242 H 0.0 **** 0.06
7859 H 118.56589855745318 162.03752833196168 137.87727658850093 H 0.0 **** 0.06
7860 H 116.8916964025311 162.1122556147176 138.47591049330904 H 0.0 **** 0.06
7861 C 146.07552984958284 135.45271805942366 73.4019607574559 C 0.0 **** -0.24
7862 H 146.66929453310266 134.6893953996083 72.89808388367032 H 0.0 **** 0.06
7863 H 146.73901024196635 136.18009541376983 73.86983019623077 H 0.0 **** 0.06
7864 H 145.4535945442239 134.9832334984429 74.16445836042902 H 0.0 **** 0.06
7865 H 145.43956208089844 135.95587631459568 72.67337127473621 H 0.0 **** 0.06
7866 C 63.644315895626875 150.17513729312898 45.58877759474558 C 0.0 **** -0.24
7867 H 63.633717305754516 149.720270790407 44.5983125582448 H 0.0 **** 0.06
7868 H 62.946072241948116 149.64594076760142 46.23824332325506 H 0.0 **** 0.06
7869 H 63.34762560022352 151.22102910931142 45.51137586712338 H 0.0 **** 0.06
7870 H 64.64948761020361 150.1120473773194 46.00665002596358 H 0.0 **** 0.06
7871 C 42.52235121867767 149.35166519955408 78.67469242981913 C 0.0 **** -0.24
7872 H 42.47313237562332 148.3020211572785 78.96575903703176 H 0.0 **** 0.06
7873 H 42.863043207833414 149.42661861084645 77.64230645902528 H 0.0 **** 0.06
7874 H 43.22127508986955 149.87659502508842 79.32736693876487 H 0.0 **** 0.06
7875 H 41.53346807330348 149.80033894680332 78.766080791018 H 0.0 **** 0.06
7876 C 21.311148765652888 6.267760625911507 31.655533372013053 C 0.0 **** -0.24
7877 H 20.385367826594262 6.008318563156081 31.142362529633772 H 0.0 **** 0.06
7878 H 21.079860473832184 6.834788860249546 32.55765841093563 H 0.0 **** 0.06
7879 H 21.934552397815253 6.871852599724974 30.995895083264855 H 0.0 **** 0.06
7880 H 21.84496187039568 5.356538304268099 31.924886852689724 H 0.0 **** 0.06
7881 C 1.1314362163833565 65.54615247776621 142.2723004540689 C 0.0 **** -0.24
7882 H 1.934882883102837 65.890312676637 141.62089422657726 H 0.0 **** 0.06
7883 H 1.0099086830100674 64.46834030509609 142.1602966065248 H 0.0 **** 0.06
7884 H 0.203247341653082 66.04787734409254 141.99857170166894 H 0.0 **** 0.06
7885 H 1.378704725791792 65.77945909726543 143.30767871623067 H 0.0 **** 0.06
7886 C 151.20367282260005 102.25299405073855 57.41608978307465 C 0.0 **** -0.24
7887 H 150.2309898794822 102.50794409555496 57.838639507643904 H 0.0 **** 0.06
7888 H 151.2229739736004 101.191952572606 57.16409702358676 H 0.0 **** 0.06
7889 H 151.98305815782402 102.46781495761616 58.14648029619494 H 0.0 **** 0.06
7890 H 151.3746232387671 102.84424439297649 56.51645438736642 H 0.0 **** 0.06
7891 C 134.8659744026619 54.67260834776462 97.67631263550601 C 0.0 **** -0.24
7892 H 134.54228353052366 54.10135988434469 96.80567936113414 H 0.0 **** 0.06
7893 H 133.99321906571947 55.01671550810221 98.2303498262844 H 0.0 **** 0.06
7894 H 135.4520447833508 55.53108737696691 97.3492971922438 H 0.0 **** 0.06
7895 H 135.47834730548996 54.03924852801528 98.31853739170663 H 0.0 **** 0.06
7896 C 74.46113848630216 19.96011846614391 20.27047309561567 C 0.0 **** -0.24
7897 H 75.5358933432699 20.117574032608303 20.357476420471265 H 0.0 **** 0.06
7898 H 74.02927633375721 19.844942862385494 21.26506775886582 H 0.0 **** 0.06
7899 H 74.27144310719184 19.060847112218738 19.685108655628177 H 0.0 **** 0.06
7900 H 74.00674333140311 20.81872044913797 19.77522511805077 H 0.0 **** 0.06
7901 C 123.67740129180896 17.616315099405256 76.29157630580443 C 0.0 **** -0.24
7902 H 124.29100893778909 18.490416958281457 76.07374965354 H 0.0 **** 0.06
7903 H 124.32164185780292 16.77292656508706 76.53887109181667 H 0.0 **** 0.06
7904 H 123.07296202628521 17.36918112344307 75.41914933952759 H 0.0 **** 0.06
7905 H 123.02396376989194 17.8339969894499 77.13725703696423 H 0.0 **** 0.06
7906 C 125.37906162141678 4.60293809077605 83.96048361505356 C 0.0 **** -0.24
7907 H 125.81626040398294 5.583356477814725 84.1480651976183 H 0.0 **** 0.06
7908 H 126.17145771616799 3.8929541441418323 83.72052294297764 H 0.0 **** 0.06
7909 H 124.68438571843836 4.668553890652966 83.12375200977814 H 0.0 **** 0.06
7910 H 124.84625453680303 4.2656515281362175 84.84948656061795 H 0.0 **** 0.06
7911 C 155.63813841291602 77.84248940054607 109.26789314206732 C 0.0 **** -0.24
7912 H 154.86457664048928 78.27680797172587 109.90045016748576 H 0.0 **** 0.06
7913 H 155.40076869247812 78.0323913195963 108.2215099859489 H 0.0 **** 0.06
7914 H 155.687426473939 76.7671236054468 109.44069929880692 H 0.0 **** 0.06
7915 H 156.60140914715535 78.29287126664707 109.5102432284493 H 0.0 **** 0.06
7916 C 104.81453573443366 44.52351879171067 110.74364096192613 C 0.0 **** -0.24
7917 H 105.58517689393614 44.088508589396326 111.37986354640009 H 0.0 **** 0.06
7918 H 105.0396773530016 45.575499663185724 110.56727666777633 H 0.0 **** 0.06
7919 H 103.84552045227565 44.436248823710116 111.23536161473649 H 0.0 **** 0.06
7920 H 104.78809171094088 43.99248898963219 109.79170296906972 H 0.0 **** 0.06
7921 C 146.71129131703472 58.11964307357516 119.37305484919028 C 0.0 **** -0.24
7922 H 147.30627337606546 57.206679437664036 119.39177909654933 H 0.0 **** 0.06
7923 H 146.01764667934947 58.08352555622787 118.53297836476628 H 0.0 **** 0.06
7924 H 147.3705523982098 58.98130570051717 119.26427422226294 H 0.0 **** 0.06
7925 H 146.15071335018945 58.20730300140002 120.3041579367538 H 0.0 **** 0.06
7926 C 66.65859315018287 112.26957682227606 34.97390013107656 C 0.0 **** -0.24
7927 H 66.18566073790126 111.88164522284742 35.87593330949379 H 0.0 **** 0.06
7928 H 65.97482092140432 112.16622236193393 34.131382920944134 H 0.0 **** 0.06
7929 H 67.57190749360888 111.70994300418914 34.77320947161502 H 0.0 **** 0.06
7930 H 66.90252298148643 113.32302236402617 35.116601320514945 H 0.0 **** 0.06
7931 C 82.06489298906332 86.56490352958102 149.32775709980754 C 0.0 **** -0.24
7932 H 81.94893945657185 85.6328796943754 148.773404103408 H 0.0 **** 0.06
7933 H 82.38914589673463 87.35292665441132 148.64697482385247 H 0.0 **** 0.06
7934 H 82.80987633193214 86.43159283897057 150.11129260774746 H 0.0 **** 0.06
7935 H 81.11105178690721 86.84129169267004 149.77638431832875 H 0.0 **** 0.06
7936 C 94.04172271007157 42.28689421910934 149.14189166598774 C 0.0 **** -0.24
7937 H 94.17904905766977 43.02317823457889 148.35040183130482 H 0.0 **** 0.06
7938 H 94.94823589438747 41.69223114192573 149.2464453530274 H 0.0 **** 0.06
7939 H 93.20575946135159 41.6347275414 148.88900052851005 H 0.0 **** 0.06
7940 H 93.83147801776445 42.79921190320067 150.08121783037632 H 0.0 **** 0.06
7941 C 65.61492135222545 153.08156034842398 143.79358848925617 C 0.0 **** -0.24
7942 H 64.90017210714667 153.86792050119016 144.03719903289863 H 0.0 **** 0.06
7943 H 66.17012947312766 153.3604992838948 142.8981518015677 H 0.0 **** 0.06
7944 H 65.08061434371429 152.1489247604377 143.61341155909392 H 0.0 **** 0.06
7945 H 66.30739180813147 152.94982016391933 144.6250919783779 H 0.0 **** 0.06
7946 C 40.032491047717244 128.73141307804457 15.918188862004001 C 0.0 **** -0.24
7947 H 40.174089496290705 129.8120528798976 15.92291606579613 H 0.0 **** 0.06
7948 H 39.70941416416332 128.41208468892867 14.926950955515622 H 0.0 **** 0.06
7949 H 39.27251901184147 128.4618493409711 16.65228680030873 H 0.0 **** 0.06
7950 H 40.97226342240822 128.24107433211904 16.17104778909345 H 0.0 **** 0.06
7951 C 19.078284815809376 30.015197607082712 45.03929866401489 C 0.0 **** -0.24
7952 H 19.84052480615256 30.24447824218771 44.29436144805018 H 0.0 **** 0.06
7953 H 19.382154398509627 30.41978512447767 46.004398168494944 H 0.0 **** 0.06
7954 H 18.961342788427963 28.934628632084838 45.11757438299155 H 0.0 **** 0.06
7955 H 18.130355457223956 30.46183323293093 44.73899979837134 H 0.0 **** 0.06
7956 C 71.20391049875445 11.543006904363665 78.83951797763966 C 0.0 **** -0.24
7957 H 71.7041306811061 12.279817418832067 78.21063491538877 H 0.0 **** 0.06
7958 H 71.66934195196855 11.529332020650145 79.82522809017458 H 0.0 **** 0.06
7959 H 71.29214128200952 10.556733043799454 78.3822816038241 H 0.0 **** 0.06
7960 H 70.1500763594001 11.804106437497381 78.93751034300867 H 0.0 **** 0.06
7961 C 9.009475538054083 111.8367446582771 11.155731424328536 C 0.0 **** -0.24
7962 H 8.334932560967971 112.59915006301367 10.767233548403595 H 0.0 **** 0.06
7963 H 8.949024797505835 111.81956504287521 12.244488266820497 H 0.0 **** 0.06
7964 H 10.03053583326816 112.06638615521473 10.851801334715333 H 0.0 **** 0.06
7965 H 8.72286014378836 110.8624278915475 10.761245330378443 H 0.0 **** 0.06
7966 C 157.25150281756748 114.23502628598021 44.53295770520323 C 0.0 **** -0.24
7967 H 157.1567775639832 114.68292562032556 43.543846910983234 H 0.0 **** 0.06
7968 H 157.18399313649985 115.01507494685995 45.29230244369562 H 0.0 **** 0.06
7969 H 158.21402763552942 113.73166023244968 44.6126972133154 H 0.0 **** 0.06
7970 H 156.4492354001867 113.51184561145018 44.68262930153796 H 0.0 **** 0.06
7971 C 157.00475281483799 61.05999592084795 118.9889112282076 C 0.0 **** -0.24
7972 H 156.14088197127015 61.62043521716211 119.34825626948248 H 0.0 **** 0.06
7973 H 157.90625631526126 61.657717663763876 119.12338059818103 H 0.0 **** 0.06
7974 H 156.87383068143927 60.83262881440767 117.93007578011407 H 0.0 **** 0.06
7975 H 157.09519419004044 60.13212460278865 119.55184725290121 H 0.0 **** 0.06
7976 C 56.88629560653533 83.64292319530328 144.33573097749928 C 0.0 **** -0.24
7977 H 57.70456781833866 83.60548907116947 143.6165507967904 H 0.0 **** 0.06
7978 H 56.159053588442305 82.86608034118913 144.09955713411887 H 0.0 **** 0.06
7979 H 56.40440753742803 84.6203253753989 144.28526531858319 H 0.0 **** 0.06
7980 H 57.27759255468902 83.4822403368772 145.34019330455845 H 0.0 **** 0.06
7981 C 137.85952841654725 57.44573704691254 33.192580929838016 C 0.0 **** -0.24
7982 H 137.5958366757748 57.631172727964326 32.151670698754174 H 0.0 **** 0.06
7983 H 137.48286542160116 56.46799663089871 33.493869062434726 H 0.0 **** 0.06
7984 H 137.41610721757843 58.216528186391656 33.822513862026256 H 0.0 **** 0.06
7985 H 138.9443783753068 57.4664030753645 33.302628094433516 H 0.0 **** 0.06
7986 C 20.16293171162343 103.82588060366538 105.79306818396975 C 0.0 **** -0.24
7987 H 20.92398899323004 103.17870411750243 105.35859352775014 H 0.0 **** 0.06
7988 H 20.641100192131034 104.57982821143491 106.42020121098662 H 0.0 **** 0.06
7989 H 19.481247289642624 103.22934718225093 106.39859362096706 H 0.0 **** 0.06
7990 H 19.606244465847453 104.31782671119868 104.99559267535469 H 0.0 **** 0.06
7991 C 107.66391567004874 99.77818952096897 24.512952593160293 C 0.0 **** -0.24
7992 H 107.05786969223749 100.48083843891567 23.94014227771663 H 0.0 **** 0.06
7993 H 107.87885335920467 100.20056802242271 25.4948563900532 H 0.0 **** 0.06
7994 H 108.59858312652185 99.59091928729379 23.98501562738727 H 0.0 **** 0.06
7995 H 107.1192869895381 98.84206059856615 24.630698328854862 H 0.0 **** 0.06
7996 C 32.90530743964666 13.918660966025044 115.62601061915385 C 0.0 **** -0.24
7997 H 33.694813033796436 13.577010158864653 114.95617741801183 H 0.0 **** 0.06
7998 H 33.32101893044779 14.625260568449335 116.34534215431387 H 0.0 **** 0.06
7999 H 32.48410063815891 13.065085611642303 116.1566345769173 H 0.0 **** 0.06
8000 H 32.124426428764934 14.408820655683513 115.04496228406944 H 0.0 **** 0.06
8001 C 95.1155956611938 13.8657796729388 114.10887564328047 C 0.0 **** -0.24
8002 H 94.75510474084666 12.845250349834856 114.23867186176327 H 0.0 **** 0.06
8003 H 94.93107230737033 14.433950102920903 115.02142668074535 H 0.0 **** 0.06
8004 H 94.5901409908756 14.333532715715307 113.27698784974598 H 0.0 **** 0.06
8005 H 96.18538625092135 13.849637483602663 113.90172988477866 H 0.0 **** 0.06
8006 C 32.408223523353 76.11134765319872 131.40893001113494 C 0.0 **** -0.24
8007 H 33.402959982392886 76.17063760312755 130.9661366458176 H 0.0 **** 0.06
8008 H 32.34930130350601 76.7873139983933 132.26174741007705 H 0.0 **** 0.06
8009 H 32.21980744726228 75.09016263971915 131.7395527450761 H 0.0 **** 0.06
8010 H 31.663752536886868 76.39644289666387 130.66610669146328 H 0.0 **** 0.06
8011 C 59.45516969338843 65.96243315164965 44.743468872420635 C 0.0 **** -0.24
8012 H 59.19033385819546 66.96833073785686 44.41939812582689 H 0.0 **** 0.06
8013 H 60.17384921245895 65.53331278277066 44.04620975635399 H 0.0 **** 0.06
8014 H 58.55913362239653 65.34261840556397 44.770503780538704 H 0.0 **** 0.06
8015 H 59.89660667981991 66.0057614170851 45.73984829161657 H 0.0 **** 0.06
8016 C 48.04367266599411 159.56985864775825 8.082232059270751 C 0.0 **** -0.24
8017 H 48.07388129475822 160.63448810303854 7.850172970776271 H 0.0 **** 0.06
8018 H 49.04632425026409 159.22464826264968 8.333933148627125 H 0.0 **** 0.06
8019 H 47.675761963838454 159.0197908649015 7.216467664843435 H 0.0 **** 0.06
8020 H 47.37762441674016 159.4018000439915 8.928703499777185 H 0.0 **** 0.06
8021 C 23.847596895526486 30.06959648503431 32.86467204483817 C 0.0 **** -0.24
8022 H 23.906118081768064 30.49168792053777 33.868419013287905 H 0.0 **** 0.06
8023 H 24.847579490452013 30.016272821597454 32.43328674512839 H 0.0 **** 0.06
8024 H 23.216582569511054 30.70262327625835 32.240432609854174 H 0.0 **** 0.06
8025 H 23.420036409751816 29.068373882357406 32.91573259269855 H 0.0 **** 0.06
8026 C 93.03834047036608 117.57871082727252 94.81504027874848 C 0.0 **** -0.24
8027 H 92.92049257341392 117.0558377996569 93.86597888818608 H 0.0 **** 0.06
8028 H 92.63149364513338 116.96660275178743 95.62052537974989 H 0.0 **** 0.06
8029 H 92.50508760202217 118.528804775771 94.7755087931034 H 0.0 **** 0.06
8030 H 94.09683434545137 117.7643664853878 94.99781487875538 H 0.0 **** 0.06
8031 C 52.98218398473932 83.79601153109195 12.429321332542763 C 0.0 **** -0.24
8032 H 53.48981446175759 83.74187421604701 13.392917895989555 H 0.0 **** 0.06
8033 H 53.08223171100876 84.80270291185255 12.023059367970873 H 0.0 **** 0.06
8034 H 51.92679449533637 83.55882534327111 12.562022433341028 H 0.0 **** 0.06
8035 H 53.431785122687515 83.07975559556391 11.741439718594322 H 0.0 **** 0.06
8036 C 124.28945513411952 161.67452324320305 48.196075224428284 C 0.0 **** -0.24
8037 H 125.01046704492722 162.08943377629328 48.900355656804095 H 0.0 **** 0.06
8038 H 124.78956234556864 160.95608400784388 47.545704766522476 H 0.0 **** 0.06
8039 H 123.86693872582325 162.4786590848837 47.59350133417945 H 0.0 **** 0.06
8040 H 123.49174127940225 161.17410332299136 48.74432091969504 H 0.0 **** 0.06
8041 C 55.88367124920745 14.675840605806698 7.555200054310049 C 0.0 **** -0.24
8042 H 56.31470358725883 15.249283659241314 6.734841578281802 H 0.0 **** 0.06
8043 H 55.37692587337415 15.351483226102545 8.243417312265379 H 0.0 **** 0.06
8044 H 56.67557490718883 14.14408117912523 8.082972139775777 H 0.0 **** 0.06
8045 H 55.16661824520597 13.956892759255425 7.157948418484565 H 0.0 **** 0.06
8046 C 147.72649962243912 32.724895457341916 126.98999006878469 C 0.0 **** -0.24
8047 H 147.94360028959196 33.06348667080994 128.00353887137595 H 0.0 **** 0.06
8048 H 146.68618180210427 32.94370276936658 126.74990250334568 H 0.0 **** 0.06
8049 H 147.89751710020147 31.64967864152139 126.92259028492012 H 0.0 **** 0.06
8050 H 148.37953204958592 33.24178031038541 126.28700034975927 H 0.0 **** 0.06
8051 C 39.68208243596712 107.59793641090059 53.328442936139936 C 0.0 **** -0.24
8052 H 39.33546502192735 108.31644121810737 54.07142616321187 H 0.0 **** 0.06
8053 H 40.50194455833372 108.03349881722127 52.757744827851525 H 0.0 **** 0.06
8054 H 38.86235625325571 107.3469107791438 52.6557706876489 H 0.0 **** 0.06
8055 H 40.02859209485126 106.69460600253703 53.831047256803174 H 0.0 **** 0.06
8056 C 127.45944178517732 84.69702149934727 46.29657134032681 C 0.0 **** -0.24
8057 H 126.83933157571224 83.81978381592876 46.4807213540293 H 0.0 **** 0.06
8058 H 127.95047660933227 84.59710479077211 45.328241681273795 H 0.0 **** 0.06
8059 H 128.21240816435915 84.77978192512535 47.079589324873155 H 0.0 **** 0.06
8060 H 126.8349335119635 85.58986064311051 46.29728402017784 H 0.0 **** 0.06
8061 C 112.12891118696581 33.33047438392242 41.68770706278788 C 0.0 **** -0.24
8062 H 112.75511117992559 34.08047963812962 42.17038659275461 H 0.0 **** 0.06
8063 H 111.9501588566975 32.507135704781376 42.37967158240673 H 0.0 **** 0.06
8064 H 112.63260539310355 32.95493645750548 40.79723457268658 H 0.0 **** 0.06
8065 H 111.17710621895975 33.78008260528003 41.40366723126242 H 0.0 **** 0.06
8066 C 4.2059122978581485 22.056057940847538 62.482528752921766 C 0.0 **** -0.24
8067 H 4.791590022370606 21.25505436631336 62.93434370664774 H 0.0 **** 0.06
8068 H 4.813239470757665 22.57363426158902 61.738944621936994 H 0.0 **** 0.06
8069 H 3.897784348127608 22.76017877231802 63.254847242996206 H 0.0 **** 0.06
8070 H 3.3238015380001826 21.634212299868828 62.00183374626437 H 0.0 **** 0.06
8071 C 50.60717203897491 2.37778321514935 119.89410788833729 C 0.0 **** -0.24
8072 H 50.80140271522414 2.4196368241996993 118.82319074748841 H 0.0 **** 0.06
8073 H 50.088677677588976 3.2851433540826918 120.2054566651284 H 0.0 **** 0.06
8074 H 51.55138963522364 2.2957028360614515 120.43131246865059 H 0.0 **** 0.06
8075 H 49.986413033806485 1.5101603960587227 120.1161365717279 H 0.0 **** 0.06
8076 C 88.3587338143827 1.7418606048981928 85.73214598044945 C 0.0 **** -0.24
8077 H 87.63827529942998 2.5575640269140933 85.79621098314576 H 0.0 **** 0.06
8078 H 89.34631047810039 2.107653654279744 86.0122434957126 H 0.0 **** 0.06
8079 H 88.38766401713737 1.363844419500424 84.70956263307878 H 0.0 **** 0.06
8080 H 88.06133165900589 0.9404306346571332 86.4083388618393 H 0.0 **** 0.06
8081 C 124.98315621743032 134.78386680525992 93.16312716887512 C 0.0 **** -0.24
8082 H 124.88618074691689 134.64161030174543 94.23964549859936 H 0.0 **** 0.06
8083 H 124.00973761601261 134.65762506615084 92.69062207411541 H 0.0 **** 0.06
8084 H 125.68099682761459 134.04899341532962 92.76111167714095 H 0.0 **** 0.06
8085 H 125.35791773196465 135.78798624016514 92.96188140676911 H 0.0 **** 0.06
8086 C 83.89407635089688 33.29327975133687 11.85427627665289 C 0.0 **** -0.24
8087 H 84.66530382707626 32.525196830782136 11.805834223704615 H 0.0 **** 0.06
8088 H 83.35951643008059 33.33267527768773 10.90451547667032 H 0.0 **** 0.06
8089 H 84.35666095392494 34.26005339501829 12.05081135614509 H 0.0 **** 0.06
8090 H 83.19440107623177 33.056068541886546 12.655708874094891 H 0.0 **** 0.06
8091 C 86.50209385553629 23.264557663118566 47.2292564593256 C 0.0 **** -0.24
8092 H 87.32871564040785 22.81547560335249 47.77910240169251 H 0.0 **** 0.06
8093 H 86.74620719131144 23.295451955568204 46.16736942233081 H 0.0 **** 0.06
8094 H 86.33158357092323 24.2773449434524 47.5940207892437 H 0.0 **** 0.06
8095 H 85.60185048364787 22.66848140746994 47.37821222329762 H 0.0 **** 0.06
8096 C 63.56591270435442 78.40592590211025 142.68971306916245 C 0.0 **** -0.24
8097 H 64.62405893577403 78.44400247593931 142.95156155821968 H 0.0 **** 0.06
8098 H 63.393772764419055 77.58389469476903 141.99487395601727 H 0.0 **** 0.06
8099 H 63.27443677973014 79.34564150850545 142.22122485976718 H 0.0 **** 0.06
8100 H 62.974452215955864 78.24959544790836 143.59169373833566 H 0.0 **** 0.06
8101 C 42.772175297576894 161.6026399738987 90.79273112478512 C 0.0 **** -0.24
8102 H 42.36934366446991 161.6646437174087 89.78175631320323 H 0.0 **** 0.06
8103 H 42.67434513232155 162.57153711456445 91.2819799707226 H 0.0 **** 0.06
8104 H 43.82449895173562 161.32157366117963 90.74687785619949 H 0.0 **** 0.06
8105 H 42.22006926383625 160.85162623571748 91.35740991532634 H 0.0 **** 0.06
8106 C 41.46521163184519 25.517763550274083 109.21503247972248 C 0.0 **** -0.24
8107 H 40.86648659643109 24.641993366425368 109.46574302787116 H 0.0 **** 0.06
8108 H 41.52671601122667 25.617490747628494 108.13091921011957 H 0.0 **** 0.06
8109 H 42.46723217580717 25.402534794580504 109.62789082027965 H 0.0 **** 0.06
8110 H 40.99923741056844 26.408622321856285 109.6362480214261 H 0.0 **** 0.06
8111 C 34.20013919401521 60.333562678432514 20.59074173029527 C 0.0 **** -0.24
8112 H 33.96664346000608 59.52224970765009 21.279869329347456 H 0.0 **** 0.06
8113 H 35.15051696322422 60.12867548531773 20.096424794140987 H 0.0 **** 0.06
8114 H 34.272855230104255 61.270369780795264 21.143651941936213 H 0.0 **** 0.06
8115 H 33.41097617767309 60.413846209925936 19.842887361838507 H 0.0 **** 0.06
8116 C 85.08637239054372 38.51269599928949 159.6462270008328 C 0.0 **** -0.24
8117 H 84.80484797262943 38.11568971645991 160.6227934058206 H 0.0 **** 0.06
8118 H 85.25620205860247 37.6870125891723 158.95507459247005 H 0.0 **** 0.06
8119 H 85.99878544047795 39.101062363931646 159.7428980959456 H 0.0 **** 0.06
8120 H 84.28426944772934 39.145685148172845 159.26735176147264 H 0.0 **** 0.06
8121 C 135.12857566281926 140.3366403350413 117.96922878022485 C 0.0 **** -0.24
8122 H 134.320035671237 141.04875822303262 117.80378073661416 H 0.0 **** 0.06
8123 H 134.9682090088516 139.4542474887898 117.35051541518851 H 0.0 **** 0.06
8124 H 135.1463173288509 140.0455316671065 119.01973620448314 H 0.0 **** 0.06
8125 H 136.08013364370817 140.7988526998456 117.70492210105931 H 0.0 **** 0.06
8126 C 146.2593840335979 162.26228514212573 0.22313687228269785 C 0.0 **** -0.24
8127 H 146.7949400273554 161.33815512840096 0.002827114123363117 H 0.0 **** 0.06
8128 H 145.22697745462045 162.03098163461223 0.48499980210326754 H 0.0 **** 0.06
8129 H 146.2764263777927 162.90939119834084 -0.6541100606908152 H 0.0 **** 0.06
8130 H 146.74226017402924 162.76935578973126 1.0587371713442195 H 0.0 **** 0.06
8131 C 129.37665847327042 135.5485518946771 22.037045199711883 C 0.0 **** -0.24
8132 H 130.41508815138698 135.86278282215565 21.93504733219561 H 0.0 **** 0.06
8133 H 128.83111470038185 136.28340614777545 22.630567843480605 H 0.0 **** 0.06
8134 H 129.33753177601068 134.57884395302995 22.534088950262912 H 0.0 **** 0.06
8135 H 128.92233516353193 135.46900236636762 21.049762038974052 H 0.0 **** 0.06
8136 C 16.465487864821483 19.66987936540942 122.5827125564762 C 0.0 **** -0.24
8137 H 16.231779414818874 18.971693280095472 121.7799707813351 H 0.0 **** 0.06
8138 H 17.39811700620669 20.187390046068096 122.35478607689456 H 0.0 **** 0.06
8139 H 16.572026040902614 19.123271696837413 123.52006870526012 H 0.0 **** 0.06
8140 H 15.65950755292647 20.398448496100997 122.67706111909209 H 0.0 **** 0.06
8141 C 151.75055061966182 152.50546574644918 74.67437324280999 C 0.0 **** -0.24
8142 H 151.70035263902318 153.57002384853217 74.44763762783643 H 0.0 **** 0.06
8143 H 151.2876423959709 152.31788184049697 75.64404027822879 H 0.0 **** 0.06
8144 H 152.79363447497445 152.18908575505804 74.701953149303 H 0.0 **** 0.06
8145 H 151.2214137388182 151.94505185792556 73.90437242719867 H 0.0 **** 0.06
8146 C 99.81261808453365 155.92514048473157 122.54389431204402 C 0.0 **** -0.24
8147 H 98.9313964157736 155.44473206548213 122.11905790951869 H 0.0 **** 0.06
8148 H 100.00930281534528 156.85770203151856 122.01427090168255 H 0.0 **** 0.06
8149 H 100.67208433701987 155.26206212202405 122.44398080561987 H 0.0 **** 0.06
8150 H 99.638151628554 156.13617236219838 123.59959971608802 H 0.0 **** 0.06
8151 C 69.8470130954265 158.14989401897475 39.55981043922969 C 0.0 **** -0.24
8152 H 69.99638036134564 159.20468699582938 39.790483480479566 H 0.0 **** 0.06
8153 H 69.20191030085482 158.05653273758745 38.686124045556426 H 0.0 **** 0.06
8154 H 69.38008986441625 157.65360356649816 40.41065434013029 H 0.0 **** 0.06
8155 H 70.81066694010931 157.68476673402103 39.35207808014229 H 0.0 **** 0.06
8156 C 146.36990111333185 25.057059591662068 43.2086486291833 C 0.0 **** -0.24
8157 H 145.4527380538509 25.30886928937005 42.675480102927764 H 0.0 **** 0.06
8158 H 146.38092353549237 25.565008968548376 44.172918191101274 H 0.0 **** 0.06
8159 H 147.229900781904 25.373266384972524 42.619755907307194 H 0.0 **** 0.06
8160 H 146.41335083516958 23.978875218488874 43.36508538109564 H 0.0 **** 0.06
8161 C 22.77398277485114 30.513500387267243 128.5508572945255 C 0.0 **** -0.24
8162 H 23.455707297886086 29.671509641864134 128.4323494705143 H 0.0 **** 0.06
8163 H 22.325071893690307 30.755979700694468 127.58755429738304 H 0.0 **** 0.06
8164 H 23.325939045751603 31.37743245746742 128.9225985256447 H 0.0 **** 0.06
8165 H 21.99038465012469 30.250315218590345 129.26124408845055 H 0.0 **** 0.06
8166 C 105.49679631106807 71.92455303730272 71.95070548137352 C 0.0 **** -0.24
8167 H 106.52063386481052 72.24498331985401 72.14730913808886 H 0.0 **** 0.06
8168 H 104.98040156014213 71.76254139182636 72.89706564332461 H 0.0 **** 0.06
8169 H 105.51077153687345 70.9962706291466 71.37998111232562 H 0.0 **** 0.06
8170 H 104.97836793604927 72.69425059455713 71.37989245254752 H 0.0 **** 0.06
8171 C 137.9464639937413 26.806086090003618 56.040202893549946 C 0.0 **** -0.24
8172 H 137.4036737288846 27.541380768227043 55.446616079296774 H 0.0 **** 0.06
8173 H 137.86066605530445 27.05865818487206 57.09788666447412 H 0.0 **** 0.06
8174 H 138.99725699825422 26.80881222944072 55.749972821135955 H 0.0 **** 0.06
8175 H 137.52397825790175 25.81631904770461 55.86744914650939 H 0.0 **** 0.06
8176 C 144.21866968496997 73.36536444114131 4.514256780304947 C 0.0 **** -0.24
8177 H 144.14405336215887 74.04687047724155 3.6668207738960064 H 0.0 **** 0.06
8178 H 144.69613087314423 72.43930016557269 4.192826149000382 H 0.0 **** 0.06
8179 H 143.22026847342775 73.14799955809465 4.893557952033149 H 0.0 **** 0.06
8180 H 144.81422398368449 73.82781731888792 5.300118224459396 H 0.0 **** 0.06
8181 C 7.837326371460307 63.036107237039076 148.32018946399694 C 0.0 **** -0.24
8182 H 7.347701081227683 62.28171808140999 148.93698275853075 H 0.0 **** 0.06
8183 H 7.30421097927163 63.13306964326533 147.37420101874977 H 0.0 **** 0.06
8184 H 8.866565080824017 62.73577981239406 148.1287373416909 H 0.0 **** 0.06
8185 H 7.8280277687443345 63.99288889503018 148.8423237877339 H 0.0 **** 0.06
8186 C 40.82198421386404 112.6637740383864 25.27382733398636 C 0.0 **** -0.24
8187 H 40.80135521218135 113.56568212320258 25.886441518168397 H 0.0 **** 0.06
8188 H 41.76919858783111 112.1464187885237 25.421083180828816 H 0.0 **** 0.06
8189 H 40.71576131200415 112.93579851138179 24.2238805619823 H 0.0 **** 0.06
8190 H 39.999811583130196 112.00868075649618 25.564625994206807 H 0.0 **** 0.06
8191 C 106.15336422654286 77.75263789618683 30.414548889765854 C 0.0 **** -0.24
8192 H 106.57531076940961 77.96368474284664 29.43224690915241 H 0.0 **** 0.06
8193 H 106.03157744380408 78.68615884163137 30.96550581415198 H 0.0 **** 0.06
8194 H 106.82350540604895 77.09191226398022 30.963612879394276 H 0.0 **** 0.06
8195 H 105.18288532833586 77.27102452596881 30.29679868000744 H 0.0 **** 0.06
8196 C 152.06228719286858 135.86143598311654 111.56816674442652 C 0.0 **** -0.24
8197 H 152.48404978146942 136.79230077623828 111.94720752134293 H 0.0 **** 0.06
8198 H 151.67739368517297 136.02094201575466 110.56059754597064 H 0.0 **** 0.06
8199 H 151.25088501381518 135.53792721853222 112.2204423386533 H 0.0 **** 0.06
8200 H 152.83731032221854 135.09543869589794 111.54430972819065 H 0.0 **** 0.06
8201 C 110.70415192901407 40.73964386901625 34.9979099316036 C 0.0 **** -0.24
8202 H 110.12576068265861 40.92562036944989 35.90284814019151 H 0.0 **** 0.06
8203 H 111.76849742691132 40.79519784833704 35.22790839673809 H 0.0 **** 0.06
8204 H 110.45570036412914 41.49130866535327 34.24714580196553 H 0.0 **** 0.06
8205 H 110.46590371987702 39.74882906427213 34.61113393889531 H 0.0 **** 0.06
8206 C 20.60364204125409 4.36059700638944 8.384613497362977 C 0.0 **** -0.24
8207 H 19.853568337551025 5.137237323034412 8.237002192179034 H 0.0 **** 0.06
8208 H 20.309139758120665 3.725636945419069 9.220984241673477 H 0.0 **** 0.06
8209 H 21.566512887937222 4.823145006964268 8.600675815151988 H 0.0 **** 0.06
8210 H 20.684363610909173 3.757949949681546 7.480521478623132 H 0.0 **** 0.06
8211 C 12.407537387887288 130.88932037168635 21.885141231468253 C 0.0 **** -0.24
8212 H 12.645360908089089 130.7714655956513 20.82774438351528 H 0.0 **** 0.06
8213 H 11.428212811435401 130.45646775042658 22.087323857829354 H 0.0 **** 0.06
8214 H 12.396527743984649 131.9491839310981 22.139142952825885 H 0.0 **** 0.06
8215 H 13.161733744869707 130.38013577771335 22.48527768644226 H 0.0 **** 0.06
8216 C 57.31374970958069 5.43298124041015 26.87751873433818 C 0.0 **** -0.24
8217 H 57.36694892634381 6.505069904875832 26.68546242859449 H 0.0 **** 0.06
8218 H 57.92790102814445 5.188692774923815 27.74482386453191 H 0.0 **** 0.06
8219 H 57.68290940808711 4.8897476275516425 26.007161199205726 H 0.0 **** 0.06
8220 H 56.27993019492246 5.149222485008387 27.071175638680018 H 0.0 **** 0.06
8221 C 25.57369966949051 43.97344723476711 100.34432961332072 C 0.0 **** -0.24
8222 H 25.392611803781932 44.54703984627706 99.43549434376712 H 0.0 **** 0.06
8223 H 25.340398507012566 44.588458509201104 101.2137136295784 H 0.0 **** 0.06
8224 H 26.621023831290017 43.673195492625155 100.38123295155799 H 0.0 **** 0.06
8225 H 24.940591427116573 43.086484304988176 100.34707797317421 H 0.0 **** 0.06
8226 C 120.13119932395799 142.5628328515417 25.34945744636309 C 0.0 **** -0.24
8227 H 119.69963964023623 142.19321299053345 26.27908867577503 H 0.0 **** 0.06
8228 H 120.00340787404113 143.643506284621 25.29378781724739 H 0.0 **** 0.06
8229 H 119.6282874736462 142.0925088635346 24.504295992730135 H 0.0 **** 0.06
8230 H 121.19371575803868 142.31993050607497 25.319555005729086 H 0.0 **** 0.06
8231 C 113.39427883099174 27.605133909502108 159.29320919906752 C 0.0 **** -0.24
8232 H 113.58664816708534 27.842264995976407 160.33969653794708 H 0.0 **** 0.06
8233 H 114.31638900168983 27.262536471947115 158.82344894978496 H 0.0 **** 0.06
8234 H 113.03271671785538 28.495472651579526 158.77880020134424 H 0.0 **** 0.06
8235 H 112.6412883479515 26.818943340410897 159.2313981819542 H 0.0 **** 0.06
8236 C 124.40043714768646 14.162981716033983 162.29469075824113 C 0.0 **** -0.24
8237 H 124.77576915954566 13.460133376181062 163.0380889894074 H 0.0 **** 0.06
8238 H 124.08508033090257 15.081957991830052 162.78998720912975 H 0.0 **** 0.06
8239 H 123.55134380391684 13.721124588862438 161.77349154401932 H 0.0 **** 0.06
8240 H 125.18900739212037 14.389466152052933 161.5775550631248 H 0.0 **** 0.06
8241 C 157.859352541021 57.24027603211313 85.08232606887172 C 0.0 **** -0.24
8242 H 158.69282947771416 56.60772095336851 84.77732259962046 H 0.0 **** 0.06
8243 H 157.56808582493164 57.8828200672131 84.25018258297226 H 0.0 **** 0.06
8244 H 158.16355795143627 57.85710576806447 85.9276289640342 H 0.0 **** 0.06
8245 H 157.01538529603394 56.61467482729816 85.37258159751103 H 0.0 **** 0.06
8246 C 40.14359206681736 108.0355695449538 114.55462878056909 C 0.0 **** -0.24
8247 H 39.26027464673042 108.6545307921075 114.71205548452588 H 0.0 **** 0.06
8248 H 40.59710545010391 107.79977688088874 115.51794613294476 H 0.0 **** 0.06
8249 H 40.86069173146724 108.57520031071891 113.93688811382054 H 0.0 **** 0.06
8250 H 39.85417022426378 107.11120544376547 114.05427702890984 H 0.0 **** 0.06
8251 C 81.02372725527844 89.3078721622206 155.25815853327913 C 0.0 **** -0.24
8252 H 81.40892421826008 88.71779458499668 156.08932252873336 H 0.0 **** 0.06
8253 H 81.82872266102976 89.91551053903737 154.84102192436933 H 0.0 **** 0.06
8254 H 80.22512099757263 89.95808130383045 155.61407698834972 H 0.0 **** 0.06
8255 H 80.6346727992686 88.64161969461239 154.48874959797314 H 0.0 **** 0.06
8256 C 4.7997423240167905 9.108440108213138 147.4192694359822 C 0.0 **** -0.24
8257 H 4.734384384214081 8.324275179237375 148.17420624815247 H 0.0 **** 0.06
8258 H 5.067267475842243 8.66509914885129 146.45958721084577 H 0.0 **** 0.06
8259 H 5.561629818878828 9.831073130190283 147.71150703755688 H 0.0 **** 0.06
8260 H 3.836891525877718 9.61029266418138 147.33297252601307 H 0.0 **** 0.06
8261 C 30.572743896484496 28.430189827519143 96.02309830565127 C 0.0 **** -0.24
8262 H 31.079114321828797 27.488908293769185 95.80919663504325 H 0.0 **** 0.06
8263 H 31.279896250678036 29.129928845604695 96.46822604288741 H 0.0 **** 0.06
8264 H 29.751455604881272 28.25036288162204 96.71799521653529 H 0.0 **** 0.06
8265 H 30.17944236777288 28.84883151408343 95.09632652989079 H 0.0 **** 0.06
8266 C 112.63481308476332 69.93646802497926 105.44309005547785 C 0.0 **** -0.24
8267 H 113.25768430403184 70.32101926010267 106.25079894604161 H 0.0 **** 0.06
8268 H 111.6978212439966 70.49355873728581 105.4099671978002 H 0.0 **** 0.06
8269 H 112.42474076669282 68.88130670582092 105.61893395539354 H 0.0 **** 0.06
8270 H 113.15951494125528 70.04995627750066 104.49431545518055 H 0.0 **** 0.06
8271 C 114.98257175300748 61.435345714457924 19.0473370035387 C 0.0 **** -0.24
8272 H 114.91626904963175 60.892054424827734 18.10477433796484 H 0.0 **** 0.06
8273 H 115.73923655632825 60.97112138797377 19.68179037511834 H 0.0 **** 0.06
8274 H 114.01745972765798 61.40664813895819 19.552107299887183 H 0.0 **** 0.06
8275 H 115.25903395127258 62.47141398754934 18.850458720692927 H 0.0 **** 0.06
8276 C 69.0514512745542 43.63439682281938 27.184936537032065 C 0.0 **** -0.24
8277 H 68.72313022404352 43.606056071001944 28.223198016473823 H 0.0 **** 0.06
8278 H 69.04775642765858 44.66568630221903 26.830961627099057 H 0.0 **** 0.06
8279 H 68.37360060747771 43.038163145262416 26.57357678209835 H 0.0 **** 0.06
8280 H 70.06015618710227 43.22820476866198 27.11139563739392 H 0.0 **** 0.06
8281 C 43.37525572724657 42.246292866687725 112.30870240548924 C 0.0 **** -0.24
8282 H 44.08908350013404 41.74549288316109 112.96363307262524 H 0.0 **** 0.06
8283 H 43.56735458312892 43.32012604997408 112.3169631486484 H 0.0 **** 0.06
8284 H 42.36181957545692 42.05611250961738 112.66217582150497 H 0.0 **** 0.06
8285 H 43.48506425868088 41.86519356600951 111.29366238153708 H 0.0 **** 0.06
8286 C 138.36205571187244 43.59617534361004 3.279542829626436 C 0.0 **** -0.24
8287 H 138.37965059206948 43.13691509483856 4.267750950631495 H 0.0 **** 0.06
8288 H 138.03108395869293 42.863266996820215 2.5436237342821144 H 0.0 **** 0.06
8289 H 139.36324728176484 43.94293199552101 3.0220158483761566 H 0.0 **** 0.06
8290 H 137.67441292984597 44.44240832419587 3.2842363829718124 H 0.0 **** 0.06
8291 C 147.03626523727607 16.599316687928194 80.88428549795134 C 0.0 **** -0.24
8292 H 147.37298486866948 16.200518976404254 79.92768520892379 H 0.0 **** 0.06
8293 H 147.05699864333783 17.68906699106867 80.85023714918394 H 0.0 **** 0.06
8294 H 147.6970668514292 16.247139509025146 81.67690731350433 H 0.0 **** 0.06
8295 H 146.01977296206147 16.261085576501046 81.08153908912979 H 0.0 **** 0.06
8296 C 97.27959024096924 118.08533371432969 10.570482782007502 C 0.0 **** -0.24
8297 H 96.81188698099203 117.32621447097756 9.94387806051634 H 0.0 **** 0.06
8298 H 98.27442677971774 117.74961946685926 10.866187218427882 H 0.0 **** 0.06
8299 H 96.6708330015127 118.24801199276999 11.45984168269095 H 0.0 **** 0.06
8300 H 97.36225383995577 119.01804999602734 10.011246725859479 H 0.0 **** 0.06
8301 C 85.11372651364985 118.03447896116347 26.025117404629782 C 0.0 **** -0.24
8302 H 85.28661639407267 117.33244359625087 26.84138226339482 H 0.0 **** 0.06
8303 H 86.06754494186112 118.30813337494197 25.574250995654808 H 0.0 **** 0.06
8304 H 84.62432439155018 118.92788956617471 26.412003547810457 H 0.0 **** 0.06
8305 H 84.47699601833796 117.5675357776015 25.273836372649384 H 0.0 **** 0.06
8306 C 121.73562318684776 98.36959452830857 154.5037967904831 C 0.0 **** -0.24
8307 H 121.17231325978483 97.68996391398719 153.86513727253367 H 0.0 **** 0.06
8308 H 122.21419959291012 97.80397872208249 155.30325237944504 H 0.0 **** 0.06
8309 H 121.05840771260037 99.10734185829608 154.93551425566696 H 0.0 **** 0.06
8310 H 122.49675663249175 98.87766885436767 153.91134660367067 H 0.0 **** 0.06
8311 C 135.3199938730988 89.48783942077841 59.037900011309844 C 0.0 **** -0.24
8312 H 135.0109096685351 89.39384695991305 60.079206039964674 H 0.0 **** 0.06
8313 H 136.3913698662173 89.30050106523942 58.958384522815734 H 0.0 **** 0.06
8314 H 135.09860521935713 90.493952479298 58.68287408300628 H 0.0 **** 0.06
8315 H 134.77820143786576 88.76101946204085 58.4313741600662 H 0.0 **** 0.06
8316 C 90.57636398768624 108.21717006836937 17.1650345689564 C 0.0 **** -0.24
8317 H 90.30288228002513 107.55332717854279 16.34474240341072 H 0.0 **** 0.06
8318 H 89.87228891304757 109.04820891935174 17.210140907522828 H 0.0 **** 0.06
8319 H 91.58315105034164 108.60147116075683 17.0006133294506 H 0.0 **** 0.06
8320 H 90.54755164410813 107.66477758309946 18.103629908584537 H 0.0 **** 0.06
8321 C 70.75255396328254 160.60000741957737 83.1106078525305 C 0.0 **** -0.24
8322 H 71.61259500533276 161.1423666656433 83.50500073832126 H 0.0 **** 0.06
8323 H 70.2756815923039 161.194460012918 82.33161061417945 H 0.0 **** 0.06
8324 H 70.04032397507865 160.41498832364675 83.91441517962681 H 0.0 **** 0.06
8325 H 71.08318135787223 159.64980560060954 82.69127638088406 H 0.0 **** 0.06
8326 C 50.56830472985882 84.49857818865638 57.885983460018025 C 0.0 **** -0.24
8327 H 51.57026540937824 84.48220214776481 58.31396530022408 H 0.0 **** 0.06
8328 H 50.23722475308875 83.47702124596823 57.697791183271974 H 0.0 **** 0.06
8329 H 50.58169936285452 85.05433814986493 56.94922241311953 H 0.0 **** 0.06
8330 H 49.883095559459434 84.97945741528032 58.58452153092739 H 0.0 **** 0.06
8331 C 133.04894725734414 70.36178591428944 131.3809377770226 C 0.0 **** -0.24
8332 H 133.03224702969243 69.7098859472369 132.2550020913763 H 0.0 **** 0.06
8333 H 134.0683917554 70.70553077923857 131.20517303166002 H 0.0 **** 0.06
8334 H 132.4002626429563 71.21970095497977 131.5561487698722 H 0.0 **** 0.06
8335 H 132.6952678985558 69.81016891531725 130.51014880161705 H 0.0 **** 0.06
8336 C 71.59005823508005 134.82243513056596 39.48300113190753 C 0.0 **** -0.24
8337 H 71.09690492928473 134.15840061214288 40.1937063209199 H 0.0 **** 0.06
8338 H 72.52845938862015 135.17820061100065 39.90891082636986 H 0.0 **** 0.06
8339 H 70.94174740331391 135.6725573407449 39.27190368230592 H 0.0 **** 0.06
8340 H 71.79221335184127 134.28031992100026 38.55951033671755 H 0.0 **** 0.06
8341 C 119.36885661910077 49.19703374488965 54.933659723275696 C 0.0 **** -0.24
8342 H 119.38817359882509 49.58290376843655 55.95303455322437 H 0.0 **** 0.06
8343 H 119.61462399216907 48.13543320258836 54.94257734382256 H 0.0 **** 0.06
8344 H 120.09980533737388 49.734648222245596 54.328846916340865 H 0.0 **** 0.06
8345 H 118.37431667651171 49.337271536890555 54.51168640416637 H 0.0 **** 0.06
8346 C 52.48378968258953 35.85278315686118 12.548477012382818 C 0.0 **** -0.24
8347 H 53.561031112352225 35.972993577154625 12.438153933935297 H 0.0 **** 0.06
8348 H 52.0771938417401 35.383510815702024 11.652224163477001 H 0.0 **** 0.06
8349 H 52.021173699493545 36.82955121460422 12.689386432638656 H 0.0 **** 0.06
8350 H 52.27558721711466 35.2244623149292 13.414913121594623 H 0.0 **** 0.06
8351 C 107.4035749728796 116.7273772512635 93.51830575011633 C 0.0 **** -0.24
8352 H 107.51774514771262 116.93049783969204 94.58321845103342 H 0.0 **** 0.06
8353 H 106.34839923094654 116.57399109536235 93.2891579007885 H 0.0 **** 0.06
8354 H 107.96629167374306 115.8313672703006 93.25672998945203 H 0.0 **** 0.06
8355 H 107.78125673357721 117.5732982850202 92.94482783595333 H 0.0 **** 0.06
8356 C 108.71908480525519 87.18643541318079 132.19440946233158 C 0.0 **** -0.24
8357 H 107.79908617539184 86.99412337751852 132.7464923004553 H 0.0 **** 0.06
8358 H 108.50586337522611 87.84572735215403 131.35177034664105 H 0.0 **** 0.06
8359 H 109.12576564801918 86.24572903575546 131.82587181130432 H 0.0 **** 0.06
8360 H 109.44475719645447 87.66243653185273 132.85377686126327 H 0.0 **** 0.06
8361 C 56.58065013699988 152.85582324229512 129.43888712908196 C 0.0 **** -0.24
8362 H 56.39737601440778 151.80888015928505 129.19980849206874 H 0.0 **** 0.06
8363 H 57.611750961467294 153.1107483424691 129.19095531390545 H 0.0 **** 0.06
8364 H 56.41098407319396 153.019757408142 130.50285745744898 H 0.0 **** 0.06
8365 H 55.902143788533195 153.4845552262376 128.86124872943236 H 0.0 **** 0.06
8366 C 120.7301581087502 24.12327130267346 139.4683356911143 C 0.0 **** -0.24
8367 H 121.11706020836766 24.80467386285102 138.71034018584038 H 0.0 **** 0.06
8368 H 120.81376579894138 23.09717303501236 139.1093176204542 H 0.0 **** 0.06
8369 H 119.6836018280668 24.356334439888485 139.66530114530352 H 0.0 **** 0.06
8370 H 121.30648387957305 24.235838517055186 140.38613689849208 H 0.0 **** 0.06
8371 C 85.53809656548691 143.46188472979924 35.385208518487545 C 0.0 **** -0.24
8372 H 84.67267770814978 144.1231882044934 35.336909586806414 H 0.0 **** 0.06
8373 H 85.73256723790837 143.1942011045218 36.42351794918096 H 0.0 **** 0.06
8374 H 86.40843053384654 143.971578191959 34.97183675439743 H 0.0 **** 0.06
8375 H 85.3367659200718 142.5591673431604 34.80764105525088 H 0.0 **** 0.06
8376 C 89.320930405768 1.8535287562626195 35.90948719159891 C 0.0 **** -0.24
8377 H 90.39670504019746 1.783403495720222 35.74372444712348 H 0.0 **** 0.06
8378 H 89.02242514513142 2.902227381150283 35.91858033371966 H 0.0 **** 0.06
8379 H 89.07179982779267 1.3954625533901321 36.8674199699183 H 0.0 **** 0.06
8380 H 88.79576035866036 1.3323011705003864 35.11038455780269 H 0.0 **** 0.06
8381 C 143.25925582535945 13.184608515741246 49.26417182190494 C 0.0 **** -0.24
8382 H 143.3893415463894 12.81648453986881 50.28156421525949 H 0.0 **** 0.06
8383 H 142.28351592090382 13.662956854405252 49.17312571253535 H 0.0 **** 0.06
8384 H 143.3236495367418 12.350896876586546 48.56547003461321 H 0.0 **** 0.06
8385 H 144.04230584517194 13.909943288770307 49.03862127049081 H 0.0 **** 0.06
8386 C 128.61249262748973 32.64805967334854 27.45096289665129 C 0.0 **** -0.24
8387 H 127.94932702441685 31.898774656708554 27.882990899776686 H 0.0 **** 0.06
8388 H 129.6326893350138 32.46914517424318 27.79323353805851 H 0.0 **** 0.06
8389 H 128.29220513243334 33.64129987015241 27.7649990038173 H 0.0 **** 0.06
8390 H 128.5765512923319 32.581226152916315 26.363696898398786 H 0.0 **** 0.06
8391 C 11.767259728464182 103.53720297554761 115.49386708496206 C 0.0 **** -0.24
8392 H 12.380848089839368 102.63991375703051 115.58287427817967 H 0.0 **** 0.06
8393 H 12.27172240521567 104.2603536633141 114.85270457901666 H 0.0 **** 0.06
8394 H 11.614281773343386 103.97125782354618 116.48139731613446 H 0.0 **** 0.06
8395 H 10.8033526552695 103.27520490437595 115.05793817843067 H 0.0 **** 0.06
8396 C 125.31623042057757 120.49170440451968 87.77076445481305 C 0.0 **** -0.24
8397 H 124.74409086426317 119.9834908292001 86.99436368488361 H 0.0 **** 0.06
8398 H 126.27862539420778 120.80440413210718 87.36620464776928 H 0.0 **** 0.06
8399 H 125.4761550289158 119.81237617370027 88.6074735449246 H 0.0 **** 0.06
8400 H 124.76426490237387 121.36663572932042 88.11367273567308 H 0.0 **** 0.06
8401 C 61.30722300635803 60.826378460088506 41.28119410392735 C 0.0 **** -0.24
8402 H 61.488080484516104 61.853544457609075 41.59856053893847 H 0.0 **** 0.06
8403 H 62.26018168540968 60.3280076344964 41.10381843476111 H 0.0 **** 0.06
8404 H 60.721193680132345 60.828763785087375 40.361656817258094 H 0.0 **** 0.06
8405 H 60.759201195781046 60.29717187555542 42.0597166104199 H 0.0 **** 0.06
8406 C 50.233586733031984 63.186333353364944 88.647521739561 C 0.0 **** -0.24
8407 H 50.310872862488054 63.70453666752525 89.60282849951722 H 0.0 **** 0.06
8408 H 49.82613523021536 63.86380945265839 87.898125837615 H 0.0 **** 0.06
8409 H 49.57574331657281 62.32431039016312 88.75471914169137 H 0.0 **** 0.06
8410 H 51.222795722646765 62.850929511208975 88.3351250220303 H 0.0 **** 0.06
8411 C 150.03001360553293 111.22209076584977 154.41004082963664 C 0.0 **** -0.24
8412 H 150.06730427119348 110.13369606782382 154.38495699369793 H 0.0 **** 0.06
8413 H 149.32484478189627 111.578619311126 153.66011340502683 H 0.0 **** 0.06
8414 H 151.02040536874046 111.6248870162544 154.1993083579203 H 0.0 **** 0.06
8415 H 149.70694197248622 111.55166668297824 155.39811538473404 H 0.0 **** 0.06
8416 C 92.57468492912055 42.356053717304704 136.09683721328273 C 0.0 **** -0.24
8417 H 93.09098537802974 42.3347766846811 137.05683773717334 H 0.0 **** 0.06
8418 H 92.33251634270799 43.38694261993422 135.83806451514513 H 0.0 **** 0.06
8419 H 91.65730571486895 41.77355374562259 136.1648220499116 H 0.0 **** 0.06
8420 H 93.21976630882169 41.93037448624699 135.32838874137258 H 0.0 **** 0.06
8421 C 73.42648213451884 121.10208676571034 20.205703445157525 C 0.0 **** -0.24
8422 H 74.29186338607899 121.76371444015595 20.239893455261203 H 0.0 **** 0.06
8423 H 73.13973072625939 120.93251518687765 19.167639873335474 H 0.0 **** 0.06
8424 H 72.59576847988022 121.56226425820321 20.74141267352693 H 0.0 **** 0.06
8425 H 73.67786271309126 120.15102831319084 20.674220737982644 H 0.0 **** 0.06
8426 C 103.37636199822947 107.33158586883883 79.05281995797918 C 0.0 **** -0.24
8427 H 102.62817229938804 107.00801938145321 78.32855841203401 H 0.0 **** 0.06
8428 H 102.88896706762344 107.5541861595656 80.00252632133888 H 0.0 **** 0.06
8429 H 103.87740226190866 108.22570232534565 78.68258860351871 H 0.0 **** 0.06
8430 H 104.10933675340894 106.53722025093691 79.19657723397931 H 0.0 **** 0.06
8431 C 93.80720780629939 160.40335446515158 106.63067874589004 C 0.0 **** -0.24
8432 H 93.49156012793733 160.39161709984734 107.6737523882565 H 0.0 **** 0.06
8433 H 93.57631658683133 159.44161859394416 106.17150748767506 H 0.0 **** 0.06
8434 H 94.88107746212248 160.58283592614472 106.57814089846096 H 0.0 **** 0.06
8435 H 93.27832787545138 161.1954578077764 106.10105609214085 H 0.0 **** 0.06
8436 C 44.66324604912802 151.37570169747312 12.863931147544903 C 0.0 **** -0.24
8437 H 43.77783487376439 151.94268978456805 12.577373302265478 H 0.0 **** 0.06
8438 H 45.500928904822274 151.66474584372702 12.228090118291831 H 0.0 **** 0.06
8439 H 44.46669534058847 150.31027831993532 12.743961555664889 H 0.0 **** 0.06
8440 H 44.90775662999448 151.585662662049 13.905511122820485 H 0.0 **** 0.06
8441 C 19.131964065986892 152.94162221105313 136.642560268096 C 0.0 **** -0.24
8442 H 18.827041825302786 152.3899242635641 137.53139806882862 H 0.0 **** 0.06
8443 H 18.315649178205433 152.9444274370051 135.9194509916436 H 0.0 **** 0.06
8444 H 20.006493240208783 152.4630201625638 136.20106431230803 H 0.0 **** 0.06
8445 H 19.378238199560826 153.96672366430303 136.91803784530362 H 0.0 **** 0.06
8446 C 140.3266099999874 98.5426332104781 91.41620301064081 C 0.0 **** -0.24
8447 H 140.40210112947204 99.53447986352302 90.96984644919358 H 0.0 **** 0.06
8448 H 139.7839851441653 98.60997399860057 92.35919417880001 H 0.0 **** 0.06
8449 H 141.32783885312307 98.15013903574152 91.59872702104616 H 0.0 **** 0.06
8450 H 139.7943105792357 97.87854654249006 90.73605372893161 H 0.0 **** 0.06
8451 C 66.83237159270459 86.6328039818876 109.53562523881504 C 0.0 **** -0.24
8452 H 66.2295077489834 87.30075822003799 108.91997583082039 H 0.0 **** 0.06
8453 H 67.288601555501 85.87028506188 108.90408665469471 H 0.0 **** 0.06
8454 H 66.1969558762234 86.15386709306497 110.28144775013567 H 0.0 **** 0.06
8455 H 67.61173098908677 87.2054344472086 110.03692564006775 H 0.0 **** 0.06
8456 C 38.44889966387733 107.4374958078553 108.7539419366046 C 0.0 **** -0.24
8457 H 37.766267293377254 108.13945587076319 109.2342251989723 H 0.0 **** 0.06
8458 H 39.038489542825985 107.96142630108574 108.0015607355707 H 0.0 **** 0.06
8459 H 37.875940726774175 106.6418906695215 108.2795672726588 H 0.0 **** 0.06
8460 H 39.11406847325915 107.0088415840502 109.50352039555997 H 0.0 **** 0.06
8461 C 81.28522001741965 21.44762616724927 109.29559127863297 C 0.0 **** -0.24
8462 H 82.30753488519304 21.794935265665117 109.14489101967547 H 0.0 **** 0.06
8463 H 81.23295278721338 20.859242659632486 110.21137227036377 H 0.0 **** 0.06
8464 H 80.98281719796063 20.830960524843533 108.44905959975722 H 0.0 **** 0.06
8465 H 80.61913497494271 22.306673608139363 109.3756791347447 H 0.0 **** 0.06
8466 C 96.19727234836682 88.60350632087449 55.918428194514775 C 0.0 **** -0.24
8467 H 96.48979127068705 87.58441914741356 56.16991347480928 H 0.0 **** 0.06
8468 H 95.20059033443314 88.59607224740911 55.47645582692712 H 0.0 **** 0.06
8469 H 96.90868117673605 89.01977588178602 55.205799987862406 H 0.0 **** 0.06
8470 H 96.18947973437658 89.21187884405354 56.82262507212647 H 0.0 **** 0.06
8471 C 151.76514056807832 142.0406215551442 152.49271234121525 C 0.0 **** -0.24
8472 H 151.90869863786793 141.6806321207242 151.47365024236265 H 0.0 **** 0.06
8473 H 151.9901663252627 141.23904225689904 153.19598674202555 H 0.0 **** 0.06
8474 H 150.73093953258672 142.35911081025554 152.62287248813902 H 0.0 **** 0.06
8475 H 152.4310744402418 142.8834555203601 152.6766547993491 H 0.0 **** 0.06
8476 C 33.4091988239465 151.8599988609903 75.08861951201388 C 0.0 **** -0.24
8477 H 33.5816610838267 151.410490627054 76.06724661923721 H 0.0 **** 0.06
8478 H 34.312640799484825 152.37573362073502 74.7630628923796 H 0.0 **** 0.06
8479 H 32.58725130403391 152.5733206946154 75.15716966121437 H 0.0 **** 0.06
8480 H 33.15569847694394 151.08075417438357 74.3701133274082 H 0.0 **** 0.06
8481 C 125.235488679105 88.62373706991745 18.979212627382196 C 0.0 **** -0.24
8482 H 124.47703066645451 88.8045132865629 18.217344353406816 H 0.0 **** 0.06
8483 H 125.6235334415274 89.57725176342896 19.3394193600339 H 0.0 **** 0.06
8484 H 126.04977135995134 88.03970721261962 18.54973420841816 H 0.0 **** 0.06
8485 H 124.79203866913397 88.07407880532043 19.809673792552303 H 0.0 **** 0.06
8486 C 61.09154151267232 52.41084112993603 133.5348872118354 C 0.0 **** -0.24
8487 H 61.911104824483886 53.011292494458075 133.92815042630355 H 0.0 **** 0.06
8488 H 60.44088156135568 52.104350594421234 134.35431997619062 H 0.0 **** 0.06
8489 H 61.494581916350185 51.52716124152606 133.0396406482127 H 0.0 **** 0.06
8490 H 60.520407422474776 52.99997588981351 132.81738254901927 H 0.0 **** 0.06
8491 C 130.8152874073233 28.838382555882276 9.832067078675074 C 0.0 **** -0.24
8492 H 131.56902067304344 28.368697275738214 10.463274436567808 H 0.0 **** 0.06
8493 H 130.51252820076454 28.142644198432123 9.048981590401333 H 0.0 **** 0.06
8494 H 131.2305304982566 29.738773832500726 9.378970411110139 H 0.0 **** 0.06
8495 H 129.9486188277157 29.10434593989382 10.438005965756965 H 0.0 **** 0.06
8496 C 120.1422679270114 140.4810383574757 11.492199265733575 C 0.0 **** -0.24
8497 H 119.88382485026017 140.87273819404817 12.475751630768116 H 0.0 **** 0.06
8498 H 119.45371057412214 139.67869182779197 11.228431083125855 H 0.0 **** 0.06
8499 H 121.16152116135964 140.09360435694475 11.512781655188661 H 0.0 **** 0.06
8500 H 120.07140984246175 141.27910744298532 10.753580484408872 H 0.0 **** 0.06
8501 C 114.14058930800672 14.604359471218515 18.926197101291024 C 0.0 **** -0.24
8502 H 113.87963367046075 14.77645897816791 19.97034544640934 H 0.0 **** 0.06
8503 H 114.3786729934163 13.550723166789112 18.77969263544466 H 0.0 **** 0.06
8504 H 115.00534913974784 15.212787811783983 18.66304464014516 H 0.0 **** 0.06
8505 H 113.29729184335787 14.877432204481408 18.2915968062444 H 0.0 **** 0.06
8506 C 79.40184146527238 106.14248998168381 119.49292574935271 C 0.0 **** -0.24
8507 H 79.38058249972475 106.6885818610719 118.54989098437503 H 0.0 **** 0.06
8508 H 80.13420400455833 105.33768525119132 119.43078632994997 H 0.0 **** 0.06
8509 H 78.41554618073658 105.72270204328652 119.69150461125889 H 0.0 **** 0.06
8510 H 79.67651302009513 106.82257916447537 120.29906661054241 H 0.0 **** 0.06
8511 C 161.26056398966566 14.160342584414138 86.49639164339263 C 0.0 **** -0.24
8512 H 160.38327130712207 14.742633069614925 86.21463963274255 H 0.0 **** 0.06
8513 H 161.6861969319349 13.6920602024162 85.60949084106856 H 0.0 **** 0.06
8514 H 160.9697152560973 13.390289805179293 87.21135360509251 H 0.0 **** 0.06
8515 H 162.0010095938763 14.81770763888801 86.95272854114997 H 0.0 **** 0.06
8516 C 23.803172950445457 19.917503298045474 44.08843928406159 C 0.0 **** -0.24
8517 H 23.656027481149778 20.347159863242688 45.07922750421399 H 0.0 **** 0.06
8518 H 23.72561444376811 20.704102813587824 43.33675598187229 H 0.0 **** 0.06
8519 H 23.041061447050083 19.161197453261657 43.9040230624185 H 0.0 **** 0.06
8520 H 24.790502613391055 19.459140014482124 44.03421672923639 H 0.0 **** 0.06
8521 C 85.10789847783792 116.59237694927609 91.32099949294062 C 0.0 **** -0.24
8522 H 85.81836617194728 117.41808997620382 91.28089324792055 H 0.0 **** 0.06
8523 H 84.09176406397998 116.98574253409885 91.27722440707123 H 0.0 **** 0.06
8524 H 85.24504676436365 116.04050260283205 92.25071821307841 H 0.0 **** 0.06
8525 H 85.27736076391258 115.92694447050701 90.47417718483251 H 0.0 **** 0.06
8526 C 88.8235594805222 162.2744466812584 120.82289410782118 C 0.0 **** -0.24
8527 H 88.1894024119815 162.46208626929834 119.9564709711039 H 0.0 **** 0.06
8528 H 88.9557947638507 161.1999557608432 120.94914759613064 H 0.0 **** 0.06
8529 H 88.35328628340653 162.69125450169454 121.71348279781421 H 0.0 **** 0.06
8530 H 89.7952458231314 162.74531840158662 120.6702266139726 H 0.0 **** 0.06
8531 C 54.40749279707501 45.30791318374236 138.15416275225712 C 0.0 **** -0.24
8532 H 54.56871772126942 46.21865139942253 138.73058730948364 H 0.0 **** 0.06
8533 H 54.201181414807536 44.479528044208735 138.83299673440186 H 0.0 **** 0.06
8534 H 55.29916529085649 45.08546936864002 137.56887244873408 H 0.0 **** 0.06
8535 H 53.55874629004002 45.44856705016133 137.48407041158413 H 0.0 **** 0.06
8536 C 158.1461158171863 56.88924528227652 149.74119067900705 C 0.0 **** -0.24
8537 H 158.3897097405449 56.64781432533158 150.77595729882393 H 0.0 **** 0.06
8538 H 158.91547904360687 56.48406378413458 149.08357525277864 H 0.0 **** 0.06
8539 H 158.0991170522951 57.97129279273622 149.62289391340784 H 0.0 **** 0.06
8540 H 157.18103024379698 56.453096223321864 149.4842671963495 H 0.0 **** 0.06
8541 C 4.604781638775279 145.60954854351428 25.16040573857049 C 0.0 **** -0.24
8542 H 4.761950161704512 145.8171221245379 26.218565037206076 H 0.0 **** 0.06
8543 H 4.527196912226245 144.5327716275033 25.00892983739837 H 0.0 **** 0.06
8544 H 5.445995516043034 145.9981138526468 24.58509615713706 H 0.0 **** 0.06
8545 H 3.6849745805585528 146.09091146602225 24.828329593365766 H 0.0 **** 0.06
8546 C 112.10920468775319 141.03417400061028 86.68747947247857 C 0.0 **** -0.24
8547 H 111.77918339291793 140.35680157619242 85.90034582683646 H 0.0 **** 0.06
8548 H 113.19833183130694 141.07281640567203 86.70062018860845 H 0.0 **** 0.06
8549 H 111.74494392744771 140.67627949388842 87.65060640341203 H 0.0 **** 0.06
8550 H 111.71155803588002 142.0315537743675 86.49758316223395 H 0.0 **** 0.06
8551 C 69.05574587697726 116.00038334280066 14.777006587203857 C 0.0 **** -0.24
8552 H 68.21052664535819 115.61136498003157 14.209475961266378 H 0.0 **** 0.06
8553 H 69.02212592144303 115.60829113504434 15.79363939425349 H 0.0 **** 0.06
8554 H 69.00456114965738 117.0890586295913 14.804955021872956 H 0.0 **** 0.06
8555 H 69.98632161387582 115.6931907576951 14.29870814500407 H 0.0 **** 0.06
8556 C 87.0357348207063 109.89321304673231 91.95247115281119 C 0.0 **** -0.24
8557 H 86.5805914518877 109.14191585232936 92.59795229106172 H 0.0 **** 0.06
8558 H 88.06255804565939 109.60317199110844 91.72605526002745 H 0.0 **** 0.06
8559 H 87.03381934116743 110.85800617850578 92.46069298470363 H 0.0 **** 0.06
8560 H 86.46608518320556 109.96919908723345 91.02647803347563 H 0.0 **** 0.06
8561 C 26.657259260773714 64.78016656942891 9.699405418498536 C 0.0 **** -0.24
8562 H 26.969131277965673 65.80257907438956 9.492170544239208 H 0.0 **** 0.06
8563 H 27.45439175605965 64.25741994067623 10.228633746401279 H 0.0 **** 0.06
8564 H 26.44743399379702 64.26652247789157 8.760761191514398 H 0.0 **** 0.06
8565 H 25.758537835715153 64.79184424424295 10.315350433481228 H 0.0 **** 0.06
8566 C 86.41860225864467 129.32196647372305 83.16130675084393 C 0.0 **** -0.24
8567 H 86.4067432923442 130.19787016891894 83.81022658249503 H 0.0 **** 0.06
8568 H 86.4647447183616 128.41953251853099 83.77132126040999 H 0.0 **** 0.06
8569 H 87.29116314694569 129.36470093431578 82.50878614255657 H 0.0 **** 0.06
8570 H 85.51239097321898 129.30601109861965 82.55613291118323 H 0.0 **** 0.06
8571 C 89.29576502312601 66.91849261532371 106.942584834331 C 0.0 **** -0.24
8572 H 88.79312264067079 65.96488210763889 107.10353353923136 H 0.0 **** 0.06
8573 H 89.46459921001878 67.40657817023828 107.90192019424398 H 0.0 **** 0.06
8574 H 88.67300892689465 67.5556729056043 106.31453548654645 H 0.0 **** 0.06
8575 H 90.25226275959486 66.7457681965326 106.44838726567639 H 0.0 **** 0.06
8576 C 83.87475792654577 163.03753689273836 25.33619833847861 C 0.0 **** -0.24
8577 H 84.6053804635641 163.45231429863233 26.030212207101826 H 0.0 **** 0.06
8578 H 83.7777335831306 161.96495538165476 25.51006925134208 H 0.0 **** 0.06
8579 H 84.20495519833274 163.2115537997795 24.312855929220866 H 0.0 **** 0.06
8580 H 82.90943946480202 163.52007797720222 25.493920464960702 H 0.0 **** 0.06
8581 C 118.95439467450848 26.824006016599583 157.4744144261735 C 0.0 **** -0.24
8582 H 118.31501854502474 26.1307563892083 156.9277015391844 H 0.0 **** 0.06
8583 H 119.60914939747241 26.263969320906398 158.14345782112355 H 0.0 **** 0.06
8584 H 118.33578700893523 27.50597723165825 158.05702119435307 H 0.0 **** 0.06
8585 H 119.55839127851459 27.39411482635336 156.76849948455754 H 0.0 **** 0.06
8586 C 23.211159874237552 146.66553429635377 75.02191164202496 C 0.0 **** -0.24
8587 H 22.519932941480477 147.50443946489122 75.09932795084353 H 0.0 **** 0.06
8588 H 24.211912321994646 147.03909240424218 74.80391221883237 H 0.0 **** 0.06
8589 H 22.887851871763246 146.0015455024602 74.22007145800218 H 0.0 **** 0.06
8590 H 23.224355435377788 146.1178686818155 75.96437072067503 H 0.0 **** 0.06
8591 C 31.529990095768326 105.62876899646793 127.01404353555486 C 0.0 **** -0.24
8592 H 32.34123116365021 106.32960527365273 127.2070830428118 H 0.0 **** 0.06
8593 H 31.32971941337614 105.04685859586237 127.91470765181987 H 0.0 **** 0.06
8594 H 31.814883968515574 104.95824441730673 126.20387991216433 H 0.0 **** 0.06
8595 H 30.63287198239786 106.18016912243746 126.7311268130446 H 0.0 **** 0.06
8596 C 35.3134077462594 155.20070025317258 68.05533153854897 C 0.0 **** -0.24
8597 H 34.33071228833899 155.56325502776235 67.7516580854973 H 0.0 **** 0.06
8598 H 35.42759613418599 154.16159845541043 67.74915140522387 H 0.0 **** 0.06
8599 H 35.40813479253981 155.27346013649174 69.13892493657315 H 0.0 **** 0.06
8600 H 36.08535062131563 155.80772144992065 67.58199938280347 H 0.0 **** 0.06
8601 C 69.0247220757902 152.2597166479714 152.6052397339905 C 0.0 **** -0.24
8602 H 70.0755429201187 152.53481088712226 152.5067937406409 H 0.0 **** 0.06
8603 H 68.89297617493733 151.2193877995242 152.30990141393727 H 0.0 **** 0.06
8604 H 68.42029337671845 152.89953105904027 151.96201323178875 H 0.0 **** 0.06
8605 H 68.71217333548019 152.38730808586016 153.6413090100527 H 0.0 **** 0.06
8606 C 129.04381492873 131.74640944333404 45.24868689466689 C 0.0 **** -0.24
8607 H 129.97024882972704 131.8501669753818 44.68360684251445 H 0.0 **** 0.06
8608 H 128.25785096192973 131.37341099527373 44.5930150129883 H 0.0 **** 0.06
8609 H 128.75232798347142 132.7171983587306 45.6504693236061 H 0.0 **** 0.06
8610 H 129.19606879948233 131.04543968937887 46.06911788204252 H 0.0 **** 0.06
8611 C 46.321219280736216 116.95894855616311 44.475635677325386 C 0.0 **** -0.24
8612 H 46.60472393070262 117.40199347861261 45.43037133105997 H 0.0 **** 0.06
8613 H 47.01667961598946 117.28524922291871 43.70261327094886 H 0.0 **** 0.06
8614 H 45.31204361540716 117.27513023639196 44.21510847618174 H 0.0 **** 0.06
8615 H 46.35273190764207 115.87205821373374 44.55735605996921 H 0.0 **** 0.06
8616 C 25.049859279547917 88.75624588675645 116.18369268372655 C 0.0 **** -0.24
8617 H 25.302018933789697 88.62769125510165 115.13195791884078 H 0.0 **** 0.06
8618 H 24.230945486931944 89.46943531455211 116.27700341268002 H 0.0 **** 0.06
8619 H 25.920848479878032 89.13026877062705 116.72264405237374 H 0.0 **** 0.06
8620 H 24.746234106092203 87.79703361148712 116.60524395896331 H 0.0 **** 0.06
8621 C 98.63373817197208 67.12542055824552 99.9872223831093 C 0.0 **** -0.24
8622 H 98.00743395173788 67.71523039348135 99.31772089258757 H 0.0 **** 0.06
8623 H 99.68389151978252 67.32822469065407 99.7751815607796 H 0.0 **** 0.06
8624 H 98.43014978424347 66.06564234056417 99.83413172048694 H 0.0 **** 0.06
8625 H 98.41331211256144 67.3918044099174 101.02125230136045 H 0.0 **** 0.06
8626 C 23.47183646862146 85.5527903445211 111.5621407231348 C 0.0 **** -0.24
8627 H 22.815260547804257 86.12963161978229 112.21201763547259 H 0.0 **** 0.06
8628 H 22.903548503786226 85.18201925790265 110.70833893968455 H 0.0 **** 0.06
8629 H 23.88493719064104 84.710324609189 112.11740746342082 H 0.0 **** 0.06
8630 H 24.2842567386312 86.189103518179 111.20954925952586 H 0.0 **** 0.06
8631 C 62.14586952892138 105.74740107794221 112.81941333007342 C 0.0 **** -0.24
8632 H 62.18974358268241 106.58587762312024 113.5138785781437 H 0.0 **** 0.06
8633 H 61.25528902904664 105.15303374593122 113.02375545884189 H 0.0 **** 0.06
8634 H 63.03337585963567 105.12737822068968 112.9429244739398 H 0.0 **** 0.06
8635 H 62.10609992883835 106.12448616742356 111.7978473517507 H 0.0 **** 0.06
8636 C 61.16432552531025 141.9228427516087 86.51763966312717 C 0.0 **** -0.24
8637 H 60.111621245501 142.19747787675783 86.58771901728261 H 0.0 **** 0.06
8638 H 61.62282470331037 141.98773901604255 87.50421141628107 H 0.0 **** 0.06
8639 H 61.67187740743826 142.60470005928272 85.834544803933 H 0.0 **** 0.06
8640 H 61.2493039099562 140.90281893069528 86.1429291961193 H 0.0 **** 0.06
8641 C 128.88815125328722 82.12770484958591 160.19120662032515 C 0.0 **** -0.24
8642 H 129.13165135228942 82.51754760023078 159.20324904828368 H 0.0 **** 0.06
8643 H 128.47961772932283 81.12172615437271 160.09440741923942 H 0.0 **** 0.06
8644 H 128.15095539357267 82.77673601439159 160.66506071356747 H 0.0 **** 0.06
8645 H 129.79009891501138 82.09678168441704 160.80228764829508 H 0.0 **** 0.06
8646 C 119.54718708004032 82.5659280609907 155.52250462916217 C 0.0 **** -0.24
8647 H 119.03982868720757 82.62705842477973 154.55936008304346 H 0.0 **** 0.06
8648 H 120.14330554936944 83.46633296144044 155.67573219137682 H 0.0 **** 0.06
8649 H 120.1979420334496 81.69209955424516 155.53410462383022 H 0.0 **** 0.06
8650 H 118.80774633939413 82.47896598327162 156.31774912186586 H 0.0 **** 0.06
8651 C 80.6727593114528 97.96032679062125 157.74290879568403 C 0.0 **** -0.24
8652 H 79.66493074616702 97.64827181292901 158.01978454351612 H 0.0 **** 0.06
8653 H 81.33223268214724 97.86294155953863 158.60513894929792 H 0.0 **** 0.06
8654 H 80.65379897447446 98.99866441682775 157.4145366255244 H 0.0 **** 0.06
8655 H 81.03713142862776 97.32913504426432 156.93244485876886 H 0.0 **** 0.06
8656 C 21.47960650751736 39.417699411659385 2.408961918967691 C 0.0 **** -0.24
8657 H 20.870286835810134 40.273080618088 2.1158895601559777 H 0.0 **** 0.06
8658 H 22.52314188792579 39.72425259683364 2.4849811865530853 H 0.0 **** 0.06
8659 H 21.38456564450206 38.63036962655764 1.6603485760461467 H 0.0 **** 0.06
8660 H 21.139061461968026 39.04335605770579 3.3748615049980515 H 0.0 **** 0.06
8661 C 147.90524801988357 18.060168793307184 1.7223068503910781 C 0.0 **** -0.24
8662 H 148.18825441086705 17.31747638309696 2.4693458535052173 H 0.0 **** 0.06
8663 H 147.33033065100227 17.57827570456385 0.9317336940888481 H 0.0 **** 0.06
8664 H 148.8041851623742 18.507635349107886 1.2985527417986589 H 0.0 **** 0.06
8665 H 147.30088779978138 18.835300495028264 2.192748561909127 H 0.0 **** 0.06
8666 C 83.06263877470914 98.32880643996302 129.1352024125904 C 0.0 **** -0.24
8667 H 83.4906478575271 98.28482057995194 130.1367309082297 H 0.0 **** 0.06
8668 H 81.97440747285461 98.34517254872449 129.20502847468768 H 0.0 **** 0.06
8669 H 83.37798261463783 97.45347133236149 128.5666880408687 H 0.0 **** 0.06
8670 H 83.40834705294112 99.23126485935418 128.63210757880597 H 0.0 **** 0.06
8671 C 28.576994996641133 38.690913871261216 109.98241844577836 C 0.0 **** -0.24
8672 H 28.641176955931115 38.08552712372065 110.88740599462312 H 0.0 **** 0.06
8673 H 27.533783931709763 38.93622417253344 109.78289303067169 H 0.0 **** 0.06
8674 H 28.986288754306713 38.13079951529103 109.14112395990787 H 0.0 **** 0.06
8675 H 29.147525526640436 39.60907229712711 110.11936314359014 H 0.0 **** 0.06
8676 C 108.10095566465006 120.59454775114023 40.374361079345974 C 0.0 **** -0.24
8677 H 108.47378689219832 119.60245905235575 40.630038142961496 H 0.0 **** 0.06
8678 H 108.4645374369494 121.31717431495821 41.104865013249864 H 0.0 **** 0.06
8679 H 107.01119659643803 120.5864239899588 40.382362433634356 H 0.0 **** 0.06
8680 H 108.45500893644322 120.8705970801027 39.38195045146557 H 0.0 **** 0.06
8681 C 160.85831859867824 89.33590837383248 1.5278641884571798 C 0.0 **** -0.24
8682 H 160.53887427946023 88.79406859736987 0.6378732739526924 H 0.0 **** 0.06
8683 H 161.15623576293586 88.62552763154038 2.299250233234851 H 0.0 **** 0.06
8684 H 160.03398111505774 89.94804623396521 1.8953445892283298 H 0.0 **** 0.06
8685 H 161.70416300153417 89.97769317128468 1.278668650446761 H 0.0 **** 0.06
8686 C 42.09585279616496 55.438902703400174 90.72113623200937 C 0.0 **** -0.24
8687 H 41.58648200219359 55.70718941375861 91.64698314543352 H 0.0 **** 0.06
8688 H 43.12648480015322 55.79105068592651 90.75896892650803 H 0.0 **** 0.06
8689 H 41.583928965384615 55.90305640414749 89.87787992218014 H 0.0 **** 0.06
8690 H 42.08539092173842 54.356225541954245 90.60100077588632 H 0.0 **** 0.06
8691 C 150.1745557017015 77.09679389959697 79.84934892706382 C 0.0 **** -0.24
8692 H 149.4800712633652 77.8192221865537 80.2787701730033 H 0.0 **** 0.06
8693 H 150.21349725961997 76.21042422060242 80.48326471858431 H 0.0 **** 0.06
8694 H 151.16661274644014 77.54233963302386 79.78436708834259 H 0.0 **** 0.06
8695 H 149.83536151212095 76.8159960182175 78.85277345269725 H 0.0 **** 0.06
8696 C 101.61682527465587 12.774080774387947 139.48106908038125 C 0.0 **** -0.24
8697 H 101.31978651714377 13.82196673821344 139.4304443618351 H 0.0 **** 0.06
8698 H 102.1829117800686 12.602216481310009 140.3961180217114 H 0.0 **** 0.06
8699 H 102.2378503496218 12.531414292094183 138.61790586519857 H 0.0 **** 0.06
8700 H 100.72763337956269 12.144017491087624 139.47826283841556 H 0.0 **** 0.06
8701 C 19.77111116938687 125.78290780579653 88.06152424730004 C 0.0 **** -0.24
8702 H 20.543053580948396 125.25903955771827 88.6249821598498 H 0.0 **** 0.06
8703 H 19.236886335499264 126.4642056940348 88.72459807748874 H 0.0 **** 0.06
8704 H 19.07038493916488 125.05903634758641 87.64489163588604 H 0.0 **** 0.06
8705 H 20.23278688116551 126.34852147745116 87.25235828239096 H 0.0 **** 0.06
8706 C 151.34918525025722 15.80493781846917 89.78582901396479 C 0.0 **** -0.24
8707 H 150.68847748024666 16.211438731351734 90.55138965760983 H 0.0 **** 0.06
8708 H 152.15469025560512 16.513338479849466 89.58907514781737 H 0.0 **** 0.06
8709 H 150.78298906337375 15.633838043953716 88.87030916227138 H 0.0 **** 0.06
8710 H 151.77093591746106 14.861860032181596 90.13485558803876 H 0.0 **** 0.06
8711 C 58.0029957588812 7.66343860588384 39.811014387202945 C 0.0 **** -0.24
8712 H 57.969452219644225 6.707182454578117 39.28872053580662 H 0.0 **** 0.06
8713 H 58.559028273387625 7.548483019969382 40.741637255156704 H 0.0 **** 0.06
8714 H 56.988333976040906 7.993030442574735 40.03171215918401 H 0.0 **** 0.06
8715 H 58.496855059321405 8.403599859704144 39.18181954367394 H 0.0 **** 0.06
8716 C 93.40491430545339 14.438718040753315 62.52983501315336 C 0.0 **** -0.24
8717 H 94.10215555934738 15.13359992912757 62.99728301371577 H 0.0 **** 0.06
8718 H 92.62253330156824 14.999922328625132 62.01748004589162 H 0.0 **** 0.06
8719 H 92.95539883128743 13.805129999442727 63.29400048510537 H 0.0 **** 0.06
8720 H 93.93811293116998 13.817148422455318 61.81044896034702 H 0.0 **** 0.06
8721 C 100.46330371568703 52.96911488325081 53.311326141509994 C 0.0 **** -0.24
8722 H 100.40258379108138 53.95650296452908 53.770343309306924 H 0.0 **** 0.06
8723 H 99.5942958054298 52.81276279376618 52.67208898971296 H 0.0 **** 0.06
8724 H 100.4838917022096 52.20718702031871 54.08933762394747 H 0.0 **** 0.06
8725 H 101.3713582316015 52.90210325990893 52.71288126782659 H 0.0 **** 0.06
8726 C 99.74471902239884 109.47664611657427 153.33515903582023 C 0.0 **** -0.24
8727 H 99.113421820665 108.66802963626563 153.70193151441097 H 0.0 **** 0.06
8728 H 100.40767938446851 109.81097731196351 154.13283005199614 H 0.0 **** 0.06
8729 H 99.1181079361096 110.30811837070488 153.00999393640143 H 0.0 **** 0.06
8730 H 100.33867443197141 109.11953984006027 152.49387850390798 H 0.0 **** 0.06
8731 C 85.63848883408875 161.9175535105163 159.19275392778414 C 0.0 **** -0.24
8732 H 84.72076502906415 162.36324514324684 158.81107763193734 H 0.0 **** 0.06
8733 H 86.46707703120198 162.61337626111106 159.0508305724258 H 0.0 **** 0.06
8734 H 85.84414944062485 160.99236336538172 158.65415038698526 H 0.0 **** 0.06
8735 H 85.5234467661347 161.70209430055445 160.25518675717586 H 0.0 **** 0.06
8736 C 43.122871969644535 81.47758143054332 85.98550698100682 C 0.0 **** -0.24
8737 H 44.03253321954013 81.01047058854277 85.60928669853526 H 0.0 **** 0.06
8738 H 42.3873772952726 80.70714791792653 86.2182743768847 H 0.0 **** 0.06
8739 H 42.7183676166668 82.14860116174407 85.22665215005644 H 0.0 **** 0.06
8740 H 43.351637815052456 82.0465655439416 86.88712172647885 H 0.0 **** 0.06
8741 C 128.32138035951326 85.45752680397327 9.294887486715112 C 0.0 **** -0.24
8742 H 127.63456945537868 85.42708170633422 10.14086014587528 H 0.0 **** 0.06
8743 H 127.90156233043979 84.88665745284449 8.466327966316356 H 0.0 **** 0.06
8744 H 129.2772299890798 85.02393941427708 9.587918712536066 H 0.0 **** 0.06
8745 H 128.4714092713257 86.49122402788208 8.985436050336034 H 0.0 **** 0.06
8746 C 84.47822659840338 13.827000349011996 58.79231535732234 C 0.0 **** -0.24
8747 H 84.58550570844054 14.104989068666058 59.84027637148577 H 0.0 **** 0.06
8748 H 85.10731113689795 12.96142441310235 58.57984922088792 H 0.0 **** 0.06
8749 H 84.78533461966886 14.661827178263266 58.16194586259887 H 0.0 **** 0.06
8750 H 83.43709864167357 13.578674028565466 58.585664737419066 H 0.0 **** 0.06
8751 C 66.59279550615878 31.346536583813595 39.183027028781396 C 0.0 **** -0.24
8752 H 67.53217135096077 31.86927132498903 39.365085509107075 H 0.0 **** 0.06
8753 H 66.14288331576881 31.7186356720535 38.26218873293527 H 0.0 **** 0.06
8754 H 65.91318995714926 31.521568795745047 40.016493794898224 H 0.0 **** 0.06
8755 H 66.78379492268385 30.278169996066886 39.088212071993155 H 0.0 **** 0.06
8756 C 57.39971355283406 76.15290936308233 98.03007746511821 C 0.0 **** -0.24
8757 H 58.12471551141118 75.76738246994509 98.7473068900432 H 0.0 **** 0.06
8758 H 57.246012923084834 77.21790899518074 98.2053537329545 H 0.0 **** 0.06
8759 H 56.453293868796024 75.62457721225299 98.15056320697056 H 0.0 **** 0.06
8760 H 57.77395818977958 76.00109599992224 97.01797149677486 H 0.0 **** 0.06
8761 C 122.48008513067421 109.23234280240663 52.93167349691798 C 0.0 **** -0.24
8762 H 122.37514232314285 109.33433323912956 54.01158358546522 H 0.0 **** 0.06
8763 H 123.356975366802 109.78772877777419 52.597998794595924 H 0.0 **** 0.06
8764 H 121.5910438340768 109.62801986771476 52.44115329078468 H 0.0 **** 0.06
8765 H 122.59849656797451 108.17932656784427 52.6764708443595 H 0.0 **** 0.06
8766 C 124.23183944006382 45.294976805514324 76.80919558437648 C 0.0 **** -0.24
8767 H 123.35832018504357 45.93201865834416 76.67459762474459 H 0.0 **** 0.06
8768 H 124.32190983500158 45.020889983981434 77.86071905979031 H 0.0 **** 0.06
8769 H 125.12706296866452 45.83464731515953 76.49648405299135 H 0.0 **** 0.06
8770 H 124.12142275709743 44.39454583734275 76.20613916943175 H 0.0 **** 0.06
8771 C 17.205612629224795 122.18638290240708 149.67135046762604 C 0.0 **** -0.24
8772 H 18.15973594890299 122.60308702668826 149.34697991872991 H 0.0 **** 0.06
8773 H 16.42945484954187 122.94706289170213 149.58207035389134 H 0.0 **** 0.06
8774 H 17.28433896613049 121.86733778100495 150.70996550133412 H 0.0 **** 0.06
8775 H 16.951892407356098 121.3315011887509 149.0459201293823 H 0.0 **** 0.06
8776 C 139.14921187015548 97.0228293745877 126.88144523523229 C 0.0 **** -0.24
8777 H 139.386966142877 96.03782412955519 127.28535423906064 H 0.0 **** 0.06
8778 H 139.72842408748198 97.1910250732457 125.97294740825171 H 0.0 **** 0.06
8779 H 139.39860280564955 97.78652002314402 127.61819187683253 H 0.0 **** 0.06
8780 H 138.0852497480949 97.07347909150826 126.65075918084398 H 0.0 **** 0.06
8781 C 12.03506933423509 144.40997627136636 45.730929092962256 C 0.0 **** -0.24
8782 H 12.75349398968308 143.7306473417969 46.18926855620886 H 0.0 **** 0.06
8783 H 12.467792512229238 145.40869457890616 45.668918913823546 H 0.0 **** 0.06
8784 H 11.129731348080611 144.44340661374196 46.336841126472734 H 0.0 **** 0.06
8785 H 11.788644877502549 144.0571524730685 44.72996147034681 H 0.0 **** 0.06
8786 C 88.94309887592547 159.25205521419971 124.16433355940259 C 0.0 **** -0.24
8787 H 89.08707617766434 158.43239761911664 124.8682872651373 H 0.0 **** 0.06
8788 H 87.99601256660533 159.74842426315172 124.3737019388546 H 0.0 **** 0.06
8789 H 88.93109856535848 158.8588546143535 123.14800677941636 H 0.0 **** 0.06
8790 H 89.75906174795398 159.96652062405013 124.26775788351924 H 0.0 **** 0.06
8791 C 136.08651664932853 82.78488720556628 118.99110445220316 C 0.0 **** -0.24
8792 H 135.8568917141708 83.55746497543814 119.72526373287752 H 0.0 **** 0.06
8793 H 136.81881630286483 82.09323732329253 119.40860599623875 H 0.0 **** 0.06
8794 H 136.49465597783436 83.24736995735796 118.092582977848 H 0.0 **** 0.06
8795 H 135.17574999214898 82.24215081613644 118.73920735849163 H 0.0 **** 0.06
8796 C 122.12092527438048 117.75525740710836 9.473425681018426 C 0.0 **** -0.24
8797 H 123.12901272768428 117.8982477015326 9.862878278745256 H 0.0 **** 0.06
8798 H 122.1508433534822 117.05547514642805 8.637570677717235 H 0.0 **** 0.06
8799 H 121.72424524657737 118.71131873245443 9.133088307898902 H 0.0 **** 0.06
8800 H 121.4816353746005 117.35464443225669 10.260391713493192 H 0.0 **** 0.06
8801 C 80.84837514455808 65.37790430357325 47.04040924206028 C 0.0 **** -0.24
8802 H 79.83523138895234 65.58060497347611 46.69444826349438 H 0.0 **** 0.06
8803 H 81.0221836663379 64.30116046644164 47.043757077655386 H 0.0 **** 0.06
8804 H 80.9731027624808 65.77026589371772 48.04888393794545 H 0.0 **** 0.06
8805 H 81.56298889257263 65.85925585897633 46.372336083623054 H 0.0 **** 0.06
8806 C 92.87614577597185 141.84085702728555 27.424823582396016 C 0.0 **** -0.24
8807 H 91.81117875699167 141.74123913000264 27.216270560461453 H 0.0 **** 0.06
8808 H 93.19190857657435 142.86358415401247 27.218104102893676 H 0.0 **** 0.06
8809 H 93.43604168665934 141.1521689723947 26.790859674969965 H 0.0 **** 0.06
8810 H 93.06572598595073 141.6058785445375 28.47191159008122 H 0.0 **** 0.06
8811 C 37.11834597403379 112.49499021768418 54.67375235036057 C 0.0 **** -0.24
8812 H 37.40020546234035 113.29150480640271 53.983569288396936 H 0.0 **** 0.06
8813 H 37.84867671343392 112.43827334314642 55.48041773278065 H 0.0 **** 0.06
8814 H 37.09069293261547 111.54520786131008 54.13970587358136 H 0.0 **** 0.06
8815 H 36.132694644575054 112.70761618166694 55.08964844308095 H 0.0 **** 0.06
8816 C 47.386178623750624 52.24033930787101 74.42781147187895 C 0.0 **** -0.24
8817 H 47.23990052113041 51.30958320045005 73.8805559432115 H 0.0 **** 0.06
8818 H 48.318385334252 52.7077517892574 74.10674115010659 H 0.0 **** 0.06
8819 H 47.43362821777808 52.03079305533538 75.4962293429279 H 0.0 **** 0.06
8820 H 46.553824297622256 52.91463338615429 74.2259931596858 H 0.0 **** 0.06
8821 C 112.82741743322137 127.40771492836419 33.26196953561498 C 0.0 **** -0.24
8822 H 113.36911027248553 128.35330958307586 33.264080735682626 H 0.0 **** 0.06
8823 H 113.5378167870951 126.58170104075253 33.22934026587848 H 0.0 **** 0.06
8824 H 112.17845125015072 127.36343526483077 32.38617325682486 H 0.0 **** 0.06
8825 H 112.22311484337163 127.33389196506482 34.16574792997983 H 0.0 **** 0.06
8826 C 12.963315045527622 4.6907254388307535 152.96399700967925 C 0.0 **** -0.24
8827 H 13.612132816854114 3.9283041476794267 153.39537287521898 H 0.0 **** 0.06
8828 H 13.52194095201014 5.267268157137352 152.22715956145566 H 0.0 **** 0.06
8829 H 12.60947200896419 5.353855970777204 153.75279535541938 H 0.0 **** 0.06
8830 H 12.112121993524624 4.2117778903434555 152.48181297923517 H 0.0 **** 0.06
8831 C 0.9565042123016383 80.10190621447477 52.78812638558048 C 0.0 **** -0.24
8832 H 1.6257475287276009 79.45856203623349 53.35848458619431 H 0.0 **** 0.06
8833 H -0.013276778417747437 80.14779359267028 53.28394091123067 H 0.0 **** 0.06
8834 H 0.8318388934243899 79.69589016201775 51.78390210679595 H 0.0 **** 0.06
8835 H 1.380589847107359 81.1035398597948 52.72557050240633 H 0.0 **** 0.06
8836 C 144.40190102981913 146.86241298946726 102.85032394599045 C 0.0 **** -0.24
8837 H 144.89589474729755 147.42518761753433 103.6421476446553 H 0.0 **** 0.06
8838 H 145.0502384695333 146.82267740744302 101.97531052460843 H 0.0 **** 0.06
8839 H 143.4644442447461 147.353125416275 102.58729359121565 H 0.0 **** 0.06
8840 H 144.1964945575774 145.85000747727702 103.19749552224829 H 0.0 **** 0.06
8841 C 123.4576597524819 147.5186920212785 19.051055258933417 C 0.0 **** -0.24
8842 H 124.42147549197125 147.3473883017407 18.571152011703163 H 0.0 **** 0.06
8843 H 123.61238152016094 148.00798887549774 20.013025964386827 H 0.0 **** 0.06
8844 H 122.95597446200202 146.5629213136731 19.206165265682984 H 0.0 **** 0.06
8845 H 122.84227657309279 148.15328086044664 18.414698950941386 H 0.0 **** 0.06
8846 C 41.0698552391347 97.95136112565868 39.10795313644877 C 0.0 **** -0.24
8847 H 41.421221254913576 97.66173343873203 40.098000895280336 H 0.0 **** 0.06
8848 H 40.26548153451114 98.68028501887201 39.20644047294863 H 0.0 **** 0.06
8849 H 40.69995885975398 97.07010338522042 38.58231127290372 H 0.0 **** 0.06
8850 H 41.89319139270084 98.39117155085103 38.545491394412124 H 0.0 **** 0.06
8851 C 57.013967296011444 29.146587949564775 119.32920722444857 C 0.0 **** -0.24
8852 H 56.20765896088447 29.78788168872984 118.97237521444637 H 0.0 **** 0.06
8853 H 57.506672124585904 28.674964125234283 118.47786132957998 H 0.0 **** 0.06
8854 H 56.60492136047344 28.377825011749565 119.98422768350136 H 0.0 **** 0.06
8855 H 57.73821989664698 29.746606486404517 119.88022608470186 H 0.0 **** 0.06
8856 C 69.92564743554055 9.998823791414594 94.03545134621842 C 0.0 **** -0.24
8857 H 70.57899794710951 10.628966209631102 94.63914291182708 H 0.0 **** 0.06
8858 H 70.03225107167461 10.268189305587583 92.98420077235595 H 0.0 **** 0.06
8859 H 68.89182921478044 10.145877607166312 94.34571554709815 H 0.0 **** 0.06
8860 H 70.20149970089483 8.953479165755908 94.17349840709565 H 0.0 **** 0.06
8861 C 113.20065240084122 153.77161799140356 41.58971942543866 C 0.0 **** -0.24
8862 H 113.88849346077589 154.58823104609002 41.80808526050211 H 0.0 **** 0.06
8863 H 112.60654625419971 153.5485521426791 42.47621386105109 H 0.0 **** 0.06
8864 H 113.76866731755734 152.88663189104227 41.30131946004751 H 0.0 **** 0.06
8865 H 112.54009930705658 154.0618130092135 40.77311530089682 H 0.0 **** 0.06
8866 C 115.00393544877909 18.184421972848725 161.87323573304195 C 0.0 **** -0.24
8867 H 114.42769699445878 18.0787445905639 162.7926787195193 H 0.0 **** 0.06
8868 H 114.99338774288654 17.24036688496585 161.32827188109124 H 0.0 **** 0.06
8869 H 116.03126268916918 18.45202884435855 162.1182564007861 H 0.0 **** 0.06
8870 H 114.56194880220957 18.96665964087066 161.2561645146595 H 0.0 **** 0.06
8871 C 11.380906541934493 84.63836825494366 30.27581992223287 C 0.0 **** -0.24
8872 H 11.41671350175205 83.54988136232166 30.331748767002182 H 0.0 **** 0.06
8873 H 10.695814684193863 85.01818636738932 31.03425068755365 H 0.0 **** 0.06
8874 H 11.033979621716625 84.93944280149015 29.287406202556866 H 0.0 **** 0.06
8875 H 12.378151765719629 85.04333635581519 30.450063084591022 H 0.0 **** 0.06
8876 C 147.61872113700886 32.157292055728156 27.640043632463374 C 0.0 **** -0.24
8877 H 148.05070722282375 32.448324385986716 26.68301592465943 H 0.0 **** 0.06
8878 H 146.63548394622774 32.617093405755 27.748483737156363 H 0.0 **** 0.06
8879 H 148.26818452646313 32.493144213794736 28.44835451663718 H 0.0 **** 0.06
8880 H 147.51929739798848 31.072703752834414 27.67995579139361 H 0.0 **** 0.06
8881 C 137.07313669438003 14.201969437519125 77.07806579104792 C 0.0 **** -0.24
8882 H 136.6045171252402 14.940464794105111 77.72879858844482 H 0.0 **** 0.06
8883 H 136.68645511045267 14.31216606790332 76.06482005670051 H 0.0 **** 0.06
8884 H 136.84988721797555 13.200450914584536 77.44561874174923 H 0.0 **** 0.06
8885 H 138.15257222271347 14.354004041156628 77.07428668480128 H 0.0 **** 0.06
8886 C 127.65137289281617 48.57872465719579 5.562501943567952 C 0.0 **** -0.24
8887 H 126.8704458640781 49.331796176360996 5.6669007533969875 H 0.0 **** 0.06
8888 H 127.7211139062467 48.269905042577534 4.519798019461916 H 0.0 **** 0.06
8889 H 127.40921163101368 47.71557678433845 6.183206828423238 H 0.0 **** 0.06
8890 H 128.60529392632185 48.999166113521056 5.881234600079836 H 0.0 **** 0.06
8891 C 148.65416094197008 91.14512319473104 130.97923682833178 C 0.0 **** -0.24
8892 H 149.22632997829967 92.06992719183603 130.9132293791075 H 0.0 **** 0.06
8893 H 149.2781106802523 90.30804392425242 130.66432428870291 H 0.0 **** 0.06
8894 H 147.78064905194898 91.21208585186238 130.32961010528598 H 0.0 **** 0.06
8895 H 148.33014434449655 90.9903623906805 132.0080493343753 H 0.0 **** 0.06
8896 C 162.33957909871955 46.46007100498896 12.569976859241308 C 0.0 **** -0.24
8897 H 162.09268600196916 47.50879198372459 12.401652785783995 H 0.0 **** 0.06
8898 H 162.96170541832097 46.097510802145194 11.751815633723396 H 0.0 **** 0.06
8899 H 161.42180471291158 45.87365835592547 12.616487559583788 H 0.0 **** 0.06
8900 H 162.8815009945773 46.36156943294948 13.51020179719933 H 0.0 **** 0.06
8901 C 139.92083003777378 22.17474253896571 104.22325897992164 C 0.0 **** -0.24
8902 H 138.92452199067094 21.738017318375555 104.29390754934303 H 0.0 **** 0.06
8903 H 139.87631414173472 23.228881569369342 104.49885674289402 H 0.0 **** 0.06
8904 H 140.28695508789392 22.081664901954298 103.20073325304188 H 0.0 **** 0.06
8905 H 140.59552893079538 21.650406366163793 104.89953837440774 H 0.0 **** 0.06
8906 C 159.02729639314188 26.306215107489635 30.89332267356258 C 0.0 **** -0.24
8907 H 157.9957663956032 26.016732653982928 31.095175699765832 H 0.0 **** 0.06
8908 H 159.45714526575094 26.761188305791137 31.78595653212159 H 0.0 **** 0.06
8909 H 159.0492718803146 27.023360244633096 30.072682807362753 H 0.0 **** 0.06
8910 H 159.6053694485521 25.423467247191297 30.62004330477592 H 0.0 **** 0.06
8911 C 115.30532466536425 119.21613063688795 39.8573966718354 C 0.0 **** -0.24
8912 H 115.93430033883465 119.99462221938785 40.29065219958477 H 0.0 **** 0.06
8913 H 115.07988174796424 119.46711915809192 38.82071681677793 H 0.0 **** 0.06
8914 H 114.37788791636365 119.14231527257891 40.42440125180775 H 0.0 **** 0.06
8915 H 115.8313211937608 118.26225295310238 39.89501140837234 H 0.0 **** 0.06
8916 C 114.17625330504742 4.954698108536263 133.05990823520037 C 0.0 **** -0.24
8917 H 113.87974271888316 5.812049318464233 132.45561424035873 H 0.0 **** 0.06
8918 H 113.46354119164096 4.819135019326268 133.8726326107243 H 0.0 **** 0.06
8919 H 115.17027004160744 5.128433230888618 133.47219174747113 H 0.0 **** 0.06
8920 H 114.19331455151107 4.060162106733912 132.43705341964093 H 0.0 **** 0.06
8921 C 26.785904455548554 17.707721488753634 133.55528112947974 C 0.0 **** -0.24
8922 H 27.170416978086287 16.86085291515485 132.98679313631635 H 0.0 **** 0.06
8923 H 27.316825413766026 17.778924371432765 134.50481256932437 H 0.0 **** 0.06
8924 H 25.72154016913276 17.56489805854801 133.74316408136514 H 0.0 **** 0.06
8925 H 26.93506761536598 18.62452040801378 132.98531101163962 H 0.0 **** 0.06
8926 C 28.453699156268897 137.57783508368314 76.35881900787204 C 0.0 **** -0.24
8927 H 29.323846126471153 137.54940720261598 75.70298674192279 H 0.0 **** 0.06
8928 H 27.554797375982332 137.36925678497178 75.77941283547032 H 0.0 **** 0.06
8929 H 28.37250366450371 138.56646890430463 76.81225076861045 H 0.0 **** 0.06
8930 H 28.56496734818228 136.82779979285746 77.14147876115707 H 0.0 **** 0.06
8931 C 131.4847414173959 22.52074391026119 21.222340128600024 C 0.0 **** -0.24
8932 H 132.23409256158095 21.84373117297502 21.633769957036236 H 0.0 **** 0.06
8933 H 131.62771060351668 23.516937763068448 21.640189928645242 H 0.0 **** 0.06
8934 H 130.48945602017352 22.158446470344494 21.4789339450881 H 0.0 **** 0.06
8935 H 131.58911330779867 22.561443602160118 20.13825023823719 H 0.0 **** 0.06
8936 C 45.157351342357515 82.43565357595703 22.79280466392479 C 0.0 **** -0.24
8937 H 44.554980062049125 82.30521865497262 23.6909145561824 H 0.0 **** 0.06
8938 H 45.29442517610677 81.47127128423509 22.302945055439316 H 0.0 **** 0.06
8939 H 46.12978200626816 82.84690241812056 23.063922450376637 H 0.0 **** 0.06
8940 H 44.651348405280345 83.12073136496458 22.112234814478107 H 0.0 **** 0.06
8941 C 52.92254977257028 133.6739818335052 7.03744080622576 C 0.0 **** -0.24
8942 H 53.07219377747708 132.77669621207434 6.437020088069062 H 0.0 **** 0.06
8943 H 52.88082891959738 133.40272230052568 8.09233771727341 H 0.0 **** 0.06
8944 H 51.98700413323087 134.1526123099167 6.7480119208997 H 0.0 **** 0.06
8945 H 53.74993494836497 134.36426633808722 6.8714951993355555 H 0.0 **** 0.06
8946 C 38.50083688038552 125.81740324598951 96.26847460146203 C 0.0 **** -0.24
8947 H 37.776147527046874 126.09620914606217 97.03382581775563 H 0.0 **** 0.06
8948 H 39.03929532535943 124.92361252832566 96.58540132226199 H 0.0 **** 0.06
8949 H 39.206624591909076 126.63543136620237 96.1217927060884 H 0.0 **** 0.06
8950 H 37.98009410683471 125.61512696220558 95.33280633307112 H 0.0 **** 0.06
8951 C 35.99626248077102 92.37715463486018 62.30626200713765 C 0.0 **** -0.24
8952 H 35.78515278318265 91.39049699995944 61.89364442465666 H 0.0 **** 0.06
8953 H 35.07509969894424 92.81386185568819 62.69105125446751 H 0.0 **** 0.06
8954 H 36.40455738436097 93.01782713937419 61.525501590077965 H 0.0 **** 0.06
8955 H 36.71991039118025 92.28413337556978 63.1156287853112 H 0.0 **** 0.06
8956 C 133.4994167131695 129.0146837770565 47.904510283790955 C 0.0 **** -0.24
8957 H 133.95701642573604 128.1151828984663 48.31545615183387 H 0.0 **** 0.06
8958 H 133.2224025118408 128.83900651908507 46.86466485652238 H 0.0 **** 0.06
8959 H 134.21031528744035 129.84001221601795 47.956645452799876 H 0.0 **** 0.06
8960 H 132.60936325218393 129.26546848738292 48.48099332864069 H 0.0 **** 0.06
8961 C 122.86761442987225 109.21516550799183 61.81345267052774 C 0.0 **** -0.24
8962 H 123.50681469686288 109.8826737504022 62.391581228195605 H 0.0 **** 0.06
8963 H 123.17863372040551 109.2291033617594 60.769049692235726 H 0.0 **** 0.06
8964 H 121.83176480486742 109.54831124809778 61.888887232736096 H 0.0 **** 0.06
8965 H 122.95243978547859 108.20166974191025 62.20468128242648 H 0.0 **** 0.06
8966 C 136.95694367739995 146.27613130740554 139.86874528854776 C 0.0 **** -0.24
8967 H 137.70426609206328 147.06507244388126 139.95875626205554 H 0.0 **** 0.06
8968 H 136.3364717142758 146.26075042077647 140.7656170031433 H 0.0 **** 0.06
8969 H 137.45615638315854 145.31413965788266 139.75529230806944 H 0.0 **** 0.06
8970 H 136.33092837974394 146.46623058664989 138.9971089209023 H 0.0 **** 0.06
8971 C 23.52813832182261 160.3445683784895 99.44456688898649 C 0.0 **** -0.24
8972 H 23.599080254589694 161.20711216600083 98.78177708910607 H 0.0 **** 0.06
8973 H 23.751099570347776 160.6531000605606 100.46683417008404 H 0.0 **** 0.06
8974 H 24.24313299750395 159.58451648590423 99.12954849085949 H 0.0 **** 0.06
8975 H 22.519240464849133 159.93354480149233 99.4001078058966 H 0.0 **** 0.06
8976 C 50.32824661676878 116.4547134435677 48.45525841052711 C 0.0 **** -0.24
8977 H 50.15989303129416 117.34403731296311 47.849537416829435 H 0.0 **** 0.06
8978 H 50.44560454845889 115.58785199850345 47.80394493228641 H 0.0 **** 0.06
8979 H 49.4763703452913 116.29966375215923 49.11721328937688 H 0.0 **** 0.06
8980 H 51.23200864301455 116.586362720968 49.05149038642736 H 0.0 **** 0.06
8981 C 36.1298798050899 65.52330182259462 54.150367840539445 C 0.0 **** -0.24
8982 H 36.295241420549104 65.83050100096769 53.11802534065366 H 0.0 **** 0.06
8983 H 35.310185804863124 64.80502007933376 54.18923912160571 H 0.0 **** 0.06
8984 H 35.877872176986614 66.39524651882343 54.75278830488611 H 0.0 **** 0.06
8985 H 37.036883140717805 65.06052724216143 54.540468493812625 H 0.0 **** 0.06
8986 C 152.62992320155053 111.0188538777399 29.140200410220984 C 0.0 **** -0.24
8987 H 153.57743348003416 110.698628403969 29.573874000374445 H 0.0 **** 0.06
8988 H 152.51639886477062 112.0956230125804 29.272360774683705 H 0.0 **** 0.06
8989 H 151.80967717829807 110.50212649662171 29.638195512633757 H 0.0 **** 0.06
8990 H 152.6183378744099 110.77945449602589 28.076800402191196 H 0.0 **** 0.06
8991 C 162.95841365045123 21.36956209155963 42.428252149882496 C 0.0 **** -0.24
8992 H 162.27529680742302 20.62402072286139 42.02130215069876 H 0.0 **** 0.06
8993 H 162.38879709496658 22.222831314600313 42.79633701250465 H 0.0 **** 0.06
8994 H 163.6433266539464 21.699037940673918 41.646503648646245 H 0.0 **** 0.06
8995 H 163.52689086133157 20.93091608651966 43.248166895982294 H 0.0 **** 0.06
8996 C 50.97938090771174 37.57408609832541 63.645055851633956 C 0.0 **** -0.24
8997 H 51.44283263310231 38.28178914716308 64.3326529418139 H 0.0 **** 0.06
8998 H 50.25161440577318 38.0955798138456 63.02296333903895 H 0.0 **** 0.06
8999 H 50.47763145592876 36.79146223128156 64.21353558367782 H 0.0 **** 0.06
9000 H 51.7466320566958 37.128235132555886 63.01133629579286 H 0.0 **** 0.06
9001 C 6.529143529441512 137.3564592235481 92.14793853055134 C 0.0 **** -0.24
9002 H 5.667655925486542 137.98524288369617 91.92349239682292 H 0.0 **** 0.06
9003 H 6.194657036632634 136.33505529524706 92.33202189592103 H 0.0 **** 0.06
9004 H 7.037698843626316 137.73832316375714 93.03319627851285 H 0.0 **** 0.06
9005 H 7.21652594115173 137.36648546431815 91.30183288574351 H 0.0 **** 0.06
9006 C 51.68297673354613 53.86665928246293 66.57141544921666 C 0.0 **** -0.24
9007 H 52.71623990837844 53.915843354287006 66.22815900321417 H 0.0 **** 0.06
9008 H 51.08604195508099 54.605595672953854 66.03456648414443 H 0.0 **** 0.06
9009 H 51.64458600474262 54.07661590458687 67.6404988119754 H 0.0 **** 0.06
9010 H 51.28455218479968 52.8702329802984 66.38224267675176 H 0.0 **** 0.06
9011 C 22.51239019066705 140.97381173203908 49.1755554496515 C 0.0 **** -0.24
9012 H 22.1164348074052 140.0085135300136 48.861350822843804 H 0.0 **** 0.06
9013 H 23.60105176114112 140.95411952802237 49.12273437602563 H 0.0 **** 0.06
9014 H 22.20137070594214 141.17873220390965 50.199364172144854 H 0.0 **** 0.06
9015 H 22.13154863790271 141.7546337794349 48.51659981885466 H 0.0 **** 0.06
9016 C 43.86742305857118 114.16072014098796 130.86108836720982 C 0.0 **** -0.24
9017 H 44.93254740397386 114.14515780651277 130.6322111758021 H 0.0 **** 0.06
9018 H 43.46524944815633 113.15087465688714 130.78554821133636 H 0.0 **** 0.06
9019 H 43.353340011874664 114.8113381739771 130.1537153058616 H 0.0 **** 0.06
9020 H 43.719334993311534 114.53611288318604 131.87430310789122 H 0.0 **** 0.06
9021 C 75.13613727855679 155.38000960791229 22.776835576427374 C 0.0 **** -0.24
9022 H 74.19253316297437 155.80708083314516 23.11620306590453 H 0.0 **** 0.06
9023 H 75.95999508289464 156.02034552312068 23.09337327711944 H 0.0 **** 0.06
9024 H 75.13099057932487 155.3057338733139 21.689791669469855 H 0.0 **** 0.06
9025 H 75.26103028903339 154.3868782020694 23.207974293215727 H 0.0 **** 0.06
9026 C 78.79531479098921 145.99128402502467 66.37954460358706 C 0.0 **** -0.24
9027 H 78.76171114619166 144.96691661810178 66.75123544552488 H 0.0 **** 0.06
9028 H 79.74622616080575 146.1630758754937 65.8740280176291 H 0.0 **** 0.06
9029 H 78.69727349469326 146.68479720023748 67.21471658312896 H 0.0 **** 0.06
9030 H 77.97581988875044 146.14988310429771 65.67734210798834 H 0.0 **** 0.06
9031 C 48.51360843933492 16.112396975925094 101.39338721654033 C 0.0 **** -0.24
9032 H 47.96338408131891 16.876565024066053 101.94268241558407 H 0.0 **** 0.06
9033 H 49.54889358957911 16.43134920356522 101.2661825031528 H 0.0 **** 0.06
9034 H 48.05461821287901 15.96703213781592 100.41537142000305 H 0.0 **** 0.06
9035 H 48.48764287466457 15.175365772210512 101.94999406254428 H 0.0 **** 0.06
9036 C 93.34495272301812 115.08921765795458 110.68382157912853 C 0.0 **** -0.24
9037 H 94.26929060538116 115.61598157316223 110.44628185841071 H 0.0 **** 0.06
9038 H 93.58182965444779 114.09934583330516 111.07393944265007 H 0.0 **** 0.06
9039 H 92.74211351361474 114.9898534299611 109.78102232085925 H 0.0 **** 0.06
9040 H 92.78916116948788 115.6524904608874 111.43212385434558 H 0.0 **** 0.06
9041 C 69.61252684455962 101.9524429258536 62.507500774728214 C 0.0 **** -0.24
9042 H 69.73618916018916 102.31511716682954 61.487177357387 H 0.0 **** 0.06
9043 H 69.4713497993182 100.87146525580735 62.49415197890093 H 0.0 **** 0.06
9044 H 68.74162477250752 102.42668291462158 62.95873888957061 H 0.0 **** 0.06
9045 H 70.50189407028938 102.1958324431117 63.08913326081213 H 0.0 **** 0.06
9046 C 79.897463184549 60.924212173244484 128.14492524580714 C 0.0 **** -0.24
9047 H 79.20207819838697 60.13340365884682 127.86397958657261 H 0.0 **** 0.06
9048 H 80.61100909420108 61.08306978088643 127.33643384238962 H 0.0 **** 0.06
9049 H 80.43081175485463 60.63306289581334 129.04948327995726 H 0.0 **** 0.06
9050 H 79.3443891141846 61.84502315371074 128.3286588843721 H 0.0 **** 0.06
9051 C 133.33396555256013 101.19286263163318 29.495061023573754 C 0.0 **** -0.24
9052 H 132.81724792134992 101.61089237005908 28.63175872938922 H 0.0 **** 0.06
9053 H 133.0688924536919 100.14042361096296 29.601128206587838 H 0.0 **** 0.06
9054 H 133.03935377392753 101.73459215680055 30.39346953662072 H 0.0 **** 0.06
9055 H 134.41112414559427 101.2836733757145 29.35249646821905 H 0.0 **** 0.06
9056 C 64.32538203354198 156.51762103221841 151.92071420944652 C 0.0 **** -0.24
9057 H 65.01399640093706 157.25233753487385 152.33830225761147 H 0.0 **** 0.06
9058 H 64.68270796038286 155.51346330357063 152.15038204311176 H 0.0 **** 0.06
9059 H 64.26892703443173 156.64568567365131 150.84015782079132 H 0.0 **** 0.06
9060 H 63.33602619578312 156.65855554696924 152.3549023227464 H 0.0 **** 0.06
9061 C 21.670472644802537 146.43591029657847 122.84411770339955 C 0.0 **** -0.24
9062 H 22.026048422722823 147.20490801906183 122.1579207625366 H 0.0 **** 0.06
9063 H 22.012617076312985 146.66284278298912 123.85404032551389 H 0.0 **** 0.06
9064 H 22.060264635374317 145.46533386018268 122.53611208188107 H 0.0 **** 0.06
9065 H 20.58023750352666 146.4112306848944 122.82693771222341 H 0.0 **** 0.06
9066 C 120.92679128236026 66.95972025378776 30.58964974432177 C 0.0 **** -0.24
9067 H 121.44529960763273 66.12591686386784 31.0629687485047 H 0.0 **** 0.06
9068 H 119.85566118327728 66.86872608667727 30.769149660136854 H 0.0 **** 0.06
9069 H 121.11856154542343 66.94530109161093 29.51670700935371 H 0.0 **** 0.06
9070 H 121.2882244562287 67.8977834933154 31.01130041009076 H 0.0 **** 0.06
9071 C 39.52808565380144 110.90970486274176 10.89936836381662 C 0.0 **** -0.24
9072 H 39.48112658178684 110.76782690948383 11.979130537364199 H 0.0 **** 0.06
9073 H 38.55231861776856 110.69371071148552 10.462204632722603 H 0.0 **** 0.06
9074 H 40.27299932107377 110.23613527912514 10.476144441483655 H 0.0 **** 0.06
9075 H 39.804506513280685 111.9412875558379 10.680202840004569 H 0.0 **** 0.06
9076 C 137.09235400882932 23.20523269316334 100.60628817279655 C 0.0 **** -0.24
9077 H 136.3508954539705 22.48850287380975 100.25223386205758 H 0.0 **** 0.06
9078 H 137.81327874010452 23.403164532227578 99.81304963624234 H 0.0 **** 0.06
9079 H 137.60948256669144 22.79427870566218 101.47305498990838 H 0.0 **** 0.06
9080 H 136.59502249026883 24.133473735013354 100.88639665984891 H 0.0 **** 0.06
9081 C 159.74928644328037 73.18047107046935 123.41552142923499 C 0.0 **** -0.24
9082 H 160.64138214564167 73.272392964559 122.79561700666895 H 0.0 **** 0.06
9083 H 160.00342901265236 73.40348661802206 124.45224969975999 H 0.0 **** 0.06
9084 H 159.3619393087468 72.16475408303951 123.34595844974925 H 0.0 **** 0.06
9085 H 158.99178740356626 73.8832134568134 123.06780284619973 H 0.0 **** 0.06
9086 C 136.6274603848124 100.42223659136783 121.84026186344613 C 0.0 **** -0.24
9087 H 135.57729481849927 100.60180925225856 122.06755849370401 H 0.0 **** 0.06
9088 H 137.15941376633518 101.37310323558722 121.8069289270507 H 0.0 **** 0.06
9089 H 136.70958123252217 99.92573296911655 120.87319093174065 H 0.0 **** 0.06
9090 H 137.06321824082607 99.7882027824763 122.61199825409852 H 0.0 **** 0.06
9091 C 115.6586589809367 92.5061830608318 113.60741574723619 C 0.0 **** -0.24
9092 H 114.62555642941908 92.25737742544253 113.8510809768224 H 0.0 **** 0.06
9093 H 116.32410565380309 92.05385742749345 114.34393672900393 H 0.0 **** 0.06
9094 H 115.7841735186596 93.58848701778537 113.61941894148936 H 0.0 **** 0.06
9095 H 115.8993512437911 92.12311368426815 112.61577672982389 H 0.0 **** 0.06
9096 C 102.64756772864075 135.25271311774412 136.0581250730088 C 0.0 **** -0.24
9097 H 102.50263919006022 135.346636513774 137.1339056923481 H 0.0 **** 0.06
9098 H 101.67997453308232 135.12576449241942 135.57168356905103 H 0.0 **** 0.06
9099 H 103.27608667683575 134.38666345822315 135.85029153369925 H 0.0 **** 0.06
9100 H 103.13154012111954 136.15214588949902 135.67755278479143 H 0.0 **** 0.06
9101 C 93.36191320876213 43.274290681052946 144.24636761657666 C 0.0 **** -0.24
9102 H 93.82028271050837 44.26231481165121 144.29847904071437 H 0.0 **** 0.06
9103 H 92.70269197496259 43.22557101010318 143.38013116466198 H 0.0 **** 0.06
9104 H 92.78426351391073 43.094193238592595 145.15382099936954 H 0.0 **** 0.06
9105 H 94.14026406240339 42.51750072925006 144.15507283585686 H 0.0 **** 0.06
9106 C 0.8423677161979413 7.955424067015656 89.34814101510042 C 0.0 **** -0.24
9107 H -0.19859139495696354 7.637755820223134 89.2936538519402 H 0.0 **** 0.06
9108 H 0.9610772705445925 8.66980629863275 90.16296733587336 H 0.0 **** 0.06
9109 H 1.1269774714415917 8.426223299387402 88.4065581668867 H 0.0 **** 0.06
9110 H 1.477613839554067 7.088285600482152 89.52761548604454 H 0.0 **** 0.06
9111 C 153.5650395216365 77.05900208779502 97.78998794214814 C 0.0 **** -0.24
9112 H 153.2608826408065 78.00475248063827 98.23810805112362 H 0.0 **** 0.06
9113 H 152.78871599935306 76.71508869976961 97.10632557398787 H 0.0 **** 0.06
9114 H 153.7146684487713 76.3169899121375 98.5734966744952 H 0.0 **** 0.06
9115 H 154.49679983629977 77.20017964787934 97.2409401186317 H 0.0 **** 0.06
9116 C 124.32644231948296 58.48368849531498 21.317646598049635 C 0.0 **** -0.24
9117 H 124.49514406877609 57.43929117008881 21.053287309909592 H 0.0 **** 0.06
9118 H 125.26676921191154 59.03108460468452 21.25091806593491 H 0.0 **** 0.06
9119 H 123.94262275075698 58.54262846768839 22.336230654642065 H 0.0 **** 0.06
9120 H 123.60160318550305 58.92006176776847 20.630268638791676 H 0.0 **** 0.06
9121 C 6.972554462165306 86.78256567675433 28.18378778641665 C 0.0 **** -0.24
9122 H 6.637146936406587 87.81680001705219 28.1138024681767 H 0.0 **** 0.06
9123 H 7.94387891464784 86.74752127742492 28.677738767424003 H 0.0 **** 0.06
9124 H 7.059141161017834 86.36119456630104 27.181829197945213 H 0.0 **** 0.06
9125 H 6.250818137095635 86.20394858670113 28.75959571493 H 0.0 **** 0.06
9126 C 106.93940599108896 92.12473156733283 100.36990442184464 C 0.0 **** -0.24
9127 H 107.23105442827347 92.14845048006332 99.32031239019432 H 0.0 **** 0.06
9128 H 105.96118498438739 92.59309699558213 100.48491044790467 H 0.0 **** 0.06
9129 H 107.67477751052922 92.66766929211582 100.96394837773732 H 0.0 **** 0.06
9130 H 106.88957158124356 91.09059905401523 100.71007690482628 H 0.0 **** 0.06
9131 C 82.23831533359555 74.81834011765056 118.57611639552712 C 0.0 **** -0.24
9132 H 83.04141652747977 75.1043037605492 119.25535650298647 H 0.0 **** 0.06
9133 H 82.40451146344235 75.28057796734142 117.60266023484056 H 0.0 **** 0.06
9134 H 81.28426000561556 75.1568822037769 118.98029648626442 H 0.0 **** 0.06
9135 H 82.22337393161483 73.73450653916859 118.46681704865594 H 0.0 **** 0.06
9136 C 82.73970903039475 34.88460711183217 73.94017305701745 C 0.0 **** -0.24
9137 H 82.78932679893883 35.40469225603435 72.98336096160732 H 0.0 **** 0.06
9138 H 82.19383967888685 33.94868415031743 73.81687768798012 H 0.0 **** 0.06
9139 H 82.22604377076779 35.51257274258184 74.66802401652875 H 0.0 **** 0.06
9140 H 83.75016554290592 34.67339430374349 74.2907349698761 H 0.0 **** 0.06
9141 C 132.90488023565794 21.892542534743313 16.27482558216326 C 0.0 **** -0.24
9142 H 133.27710972224926 22.81091668314076 16.7290050544878 H 0.0 **** 0.06
9143 H 132.2164460766844 22.139124554586544 15.467210860612397 H 0.0 **** 0.06
9144 H 132.38483161824814 21.299721914183493 17.02849597279331 H 0.0 **** 0.06
9145 H 133.7422495951711 21.319218765634957 15.876901881794367 H 0.0 **** 0.06
9146 C 0.9052099275644423 131.57806490920186 119.48513997527107 C 0.0 **** -0.24
9147 H 1.5089672248902275 131.21230131727583 118.6551478372291 H 0.0 **** 0.06
9148 H -0.1488893166156231 131.54642488416837 119.21019355019143 H 0.0 **** 0.06
9149 H 1.1900265064400628 132.6037607447291 119.7170287209205 H 0.0 **** 0.06
9150 H 1.071652582723857 130.94889896154567 120.35937100917022 H 0.0 **** 0.06
9151 C 146.2274237546958 90.64865311375115 29.629908948351613 C 0.0 **** -0.24
9152 H 145.80359768009487 90.40733450099914 30.605227702374037 H 0.0 **** 0.06
9153 H 147.03947783630434 89.95716041213468 29.40565270762795 H 0.0 **** 0.06
9154 H 146.61116923762148 91.66827180285641 29.642984017423032 H 0.0 **** 0.06
9155 H 145.45344379838355 90.56054901377081 28.8663124550624 H 0.0 **** 0.06
9156 C 58.73274068640225 37.859535055222324 104.595359770306 C 0.0 **** -0.24
9157 H 58.882783369317465 36.949823263335645 105.17703452042315 H 0.0 **** 0.06
9158 H 59.43060555812485 37.875388108394716 103.75816376022829 H 0.0 **** 0.06
9159 H 58.90504260657214 38.72889683720709 105.22953559986598 H 0.0 **** 0.06
9160 H 57.71029050472633 37.88312009949097 104.21708968669338 H 0.0 **** 0.06
9161 C 20.661577764798096 121.48184346742107 130.3688769592668 C 0.0 **** -0.24
9162 H 20.24799798447424 121.61916300208321 131.36769123103795 H 0.0 **** 0.06
9163 H 20.8939080402495 120.42791574823067 130.21404840838176 H 0.0 **** 0.06
9164 H 21.57084000183616 122.07429567767713 130.26782541428315 H 0.0 **** 0.06
9165 H 19.932875883913766 121.80620666144293 129.6266371638069 H 0.0 **** 0.06
9166 C 95.60076800523237 53.05841186571661 40.058468651407736 C 0.0 **** -0.24
9167 H 95.73543951054745 53.971121853381604 40.63879693401579 H 0.0 **** 0.06
9168 H 96.49196542151103 52.43678738239234 40.147614811098066 H 0.0 **** 0.06
9169 H 95.43834191307587 53.3141799867785 39.01164236450944 H 0.0 **** 0.06
9170 H 94.73672932968994 52.512326842621306 40.43725378190088 H 0.0 **** 0.06
9171 C 45.884932347675544 90.46994550185357 92.51786495972817 C 0.0 **** -0.24
9172 H 44.976716734713136 90.74647483176807 93.05435244083442 H 0.0 **** 0.06
9173 H 46.53290148515288 91.34248120628536 92.42997115112128 H 0.0 **** 0.06
9174 H 45.62364107437321 90.10848023417168 91.52409711035084 H 0.0 **** 0.06
9175 H 46.40458207704705 89.68473160214589 93.06616060981126 H 0.0 **** 0.06
9176 C 16.731779519318422 13.757683242503468 41.655424421703 C 0.0 **** -0.24
9177 H 15.919371288216553 13.647822423079376 40.93692019135955 H 0.0 **** 0.06
9178 H 16.373837628161397 13.490575717731147 42.65062595042741 H 0.0 **** 0.06
9179 H 17.075223682580855 14.791963421049488 41.65833349245864 H 0.0 **** 0.06
9180 H 17.555493992527346 13.101180624418355 41.37689506216046 H 0.0 **** 0.06
9181 C 14.44941322107654 30.95133782522555 9.99287770584806 C 0.0 **** -0.24
9182 H 14.802014770112429 31.772112341283844 9.367540816032061 H 0.0 **** 0.06
9183 H 13.509706791520408 31.23414818256549 10.467045373216479 H 0.0 **** 0.06
9184 H 15.193327499063855 30.733028799490313 10.759672072367891 H 0.0 **** 0.06
9185 H 14.29325192119903 30.066134368832707 9.376494433027801 H 0.0 **** 0.06
9186 C 162.68279087066125 111.01723929145362 107.85633226004623 C 0.0 **** -0.24
9187 H 162.71913670179475 110.48556012116637 106.9053027614633 H 0.0 **** 0.06
9188 H 163.68863677562788 111.32773285678587 108.13752363625639 H 0.0 **** 0.06
9189 H 162.27666108382502 110.35919529075016 108.62515185774174 H 0.0 **** 0.06
9190 H 162.04468955776343 111.89562435895056 107.75699315060504 H 0.0 **** 0.06
9191 C 17.793171894244836 65.98499977034547 97.67902905176544 C 0.0 **** -0.24
9192 H 16.87796140727312 65.43073163368716 97.47425255768371 H 0.0 **** 0.06
9193 H 17.71073405445361 66.98935693686046 97.26068874285721 H 0.0 **** 0.06
9194 H 18.638913170401196 65.47045502173742 97.22352467880239 H 0.0 **** 0.06
9195 H 17.944865297362668 66.0507725253707 98.75585581385741 H 0.0 **** 0.06
9196 C 140.55549096488153 37.15445052570098 40.344529841182464 C 0.0 **** -0.24
9197 H 140.55851485250537 38.22229703162293 40.12799687757584 H 0.0 **** 0.06
9198 H 140.06139485350258 36.620944193595236 39.53158646766377 H 0.0 **** 0.06
9199 H 140.01987673152257 36.973727873738994 41.27654624387435 H 0.0 **** 0.06
9200 H 141.5817827062544 36.80010185914561 40.440170504434946 H 0.0 **** 0.06
9201 C 121.2265465849647 61.28141481601614 113.31912850702241 C 0.0 **** -0.24
9202 H 121.6252271616014 61.79075671913351 112.44186088789127 H 0.0 **** 0.06
9203 H 121.70147103360432 60.3056585371548 113.42007552509824 H 0.0 **** 0.06
9204 H 120.15004719198981 61.151582116170886 113.20460163391704 H 0.0 **** 0.06
9205 H 121.42826738900118 61.87854368458879 114.20828916751088 H 0.0 **** 0.06
9206 C 121.67076802859162 31.252674744639023 3.9509399670381242 C 0.0 **** -0.24
9207 H 121.61819161417063 30.401370855210928 4.62940828268421 H 0.0 **** 0.06
9208 H 122.6253785610096 31.763882797478402 4.081947465255183 H 0.0 **** 0.06
9209 H 120.85545370337564 31.942821004058203 4.17010560510812 H 0.0 **** 0.06
9210 H 121.58374350940409 30.904313368524924 2.9220653766315934 H 0.0 **** 0.06
9211 C 129.3880621488644 110.02104269865367 106.4186426829256 C 0.0 **** -0.24
9212 H 129.21031265868163 111.09602669680535 106.45642354815499 H 0.0 **** 0.06
9213 H 128.54702364994282 109.53109904379707 105.92867197463795 H 0.0 **** 0.06
9214 H 129.4936948576949 109.63469027694416 107.4324332904277 H 0.0 **** 0.06
9215 H 130.30184529008918 109.82356130562857 105.85742939728067 H 0.0 **** 0.06
9216 C 145.96104351418774 85.07799645400323 96.3899745312733 C 0.0 **** -0.24
9217 H 145.71741279900573 85.9666118718458 96.97238037975538 H 0.0 **** 0.06
9218 H 146.45182347376698 84.34662745236714 97.03238894696156 H 0.0 **** 0.06
9219 H 146.62895671222793 85.35171279756264 95.57271740877094 H 0.0 **** 0.06
9220 H 145.04612150192332 84.64874528116583 95.9826368670818 H 0.0 **** 0.06
9221 C 65.02999098035174 86.1543661980282 50.09100024435773 C 0.0 **** -0.24
9222 H 64.83139824266551 85.17027004235685 50.515029163470956 H 0.0 **** 0.06
9223 H 65.57949739392737 86.75724047162545 50.81414972776935 H 0.0 **** 0.06
9224 H 64.08718037882981 86.64361720690353 49.85067876628207 H 0.0 **** 0.06
9225 H 65.62508026549969 86.04482468588198 49.18342087708544 H 0.0 **** 0.06
9226 C 29.442021805736545 155.27361092439799 134.81426657882642 C 0.0 **** -0.24
9227 H 28.919526190209638 155.0157680789397 135.73534217156924 H 0.0 **** 0.06
9228 H 30.51437354126716 155.3204006520697 135.00571723325018 H 0.0 **** 0.06
9229 H 29.09315186548463 156.2416245342673 134.45649398156212 H 0.0 **** 0.06
9230 H 29.24128377654813 154.51299810303826 134.05873876184177 H 0.0 **** 0.06
9231 C 133.11528463364604 128.48520986450882 20.27499438444888 C 0.0 **** -0.24
9232 H 133.17733958303455 128.9702992070613 19.300693415217815 H 0.0 **** 0.06
9233 H 132.48602703816778 127.59785500726505 20.199508486894857 H 0.0 **** 0.06
9234 H 132.6834770662819 129.17719244377818 20.998136966936073 H 0.0 **** 0.06
9235 H 134.11421985611457 128.1950062403313 20.600312887291004 H 0.0 **** 0.06
9236 C 81.25117257931346 134.39827359185023 119.9451301607821 C 0.0 **** -0.24
9237 H 80.92066203122603 135.34440326107998 120.37443925770677 H 0.0 **** 0.06
9238 H 80.92348445255706 133.57667026705053 120.58219321021849 H 0.0 **** 0.06
9239 H 82.33893668468313 134.39195625082058 119.87344189490409 H 0.0 **** 0.06
9240 H 80.82151208967794 134.28105433708217 118.9503395489048 H 0.0 **** 0.06
9241 C 61.29011957344163 60.953611573333774 10.569700523376696 C 0.0 **** -0.24
9242 H 60.879414359182135 61.82651675516206 11.076711977264893 H 0.0 **** 0.06
9243 H 60.76763314805409 60.05824109076889 10.906842181243746 H 0.0 **** 0.06
9244 H 62.35202820736005 60.864535259712966 10.803562416533282 H 0.0 **** 0.06
9245 H 61.1633566992096 61.06573865165694 9.493041552349382 H 0.0 **** 0.06
9246 C 84.91850270975797 53.221419181516254 139.92701302006216 C 0.0 **** -0.24
9247 H 83.92968783934566 53.01644194079111 139.51756177976375 H 0.0 **** 0.06
9248 H 85.1739439982064 54.26678871130487 139.7539981460713 H 0.0 **** 0.06
9249 H 85.65378624291456 52.58166548189361 139.43841174871037 H 0.0 **** 0.06
9250 H 84.91719829729337 53.02016630520528 140.99858637474395 H 0.0 **** 0.06
9251 C 93.7253185783351 118.5422084352837 26.868133784147503 C 0.0 **** -0.24
9252 H 94.48024243449562 118.0837080363365 27.50570508764048 H 0.0 **** 0.06
9253 H 94.21090098746896 119.17029336926782 26.12157643118369 H 0.0 **** 0.06
9254 H 93.05747364070596 119.15150377267207 27.477460625953945 H 0.0 **** 0.06
9255 H 93.15032114392942 117.76286357294319 26.368364455508512 H 0.0 **** 0.06
9256 C 60.87089621146478 69.48454465596222 10.205722482946506 C 0.0 **** -0.24
9257 H 59.837327754252854 69.6886131587845 10.485469061553196 H 0.0 **** 0.06
9258 H 61.28406089636361 70.3501787168509 9.688273488366214 H 0.0 **** 0.06
9259 H 60.90323958258435 68.61688476342732 9.546351502641812 H 0.0 **** 0.06
9260 H 61.45701814451898 69.28211631511198 11.101348888811422 H 0.0 **** 0.06
9261 C 19.36375519065865 72.57963216760585 92.9699014983095 C 0.0 **** -0.24
9262 H 20.416477593198437 72.47564745872894 93.23215437382646 H 0.0 **** 0.06
9263 H 19.044769285620134 73.60673736703089 93.14710408711164 H 0.0 **** 0.06
9264 H 18.76789564536483 71.90203487569573 93.58138753100064 H 0.0 **** 0.06
9265 H 19.22755339172903 72.33305592955371 91.91649316703433 H 0.0 **** 0.06
9266 C 2.4119375662724707 119.03828945030392 162.42691406266712 C 0.0 **** -0.24
9267 H 1.85597876893641 119.8916282049382 162.81526009527147 H 0.0 **** 0.06
9268 H 3.15699754381356 119.3860477536721 161.7104758689723 H 0.0 **** 0.06
9269 H 1.7237870429877944 118.35169137662561 161.93122073385766 H 0.0 **** 0.06
9270 H 2.9086399836288095 118.52417773350095 163.2486157422789 H 0.0 **** 0.06
9271 C 37.49035469697202 156.9811440151408 138.77083841006007 C 0.0 **** -0.24
9272 H 37.40472041949337 158.0664950543635 138.82228492600294 H 0.0 **** 0.06
9273 H 37.62906229505819 156.6771694372039 137.7327957585172 H 0.0 **** 0.06
9274 H 36.58238276942943 156.52618804945416 139.1655875424351 H 0.0 **** 0.06
9275 H 38.34584241353416 156.65663385531678 139.3627461404925 H 0.0 **** 0.06
9276 C 46.84769002165706 100.37203534153079 136.10017178430155 C 0.0 **** -0.24
9277 H 46.254328710734455 99.48442240678628 136.32005014629874 H 0.0 **** 0.06
9278 H 46.20744867948247 101.13705570455059 135.6602175336851 H 0.0 **** 0.06
9279 H 47.64140186115662 100.11451680890394 135.39959877114813 H 0.0 **** 0.06
9280 H 47.28726102713591 100.75322039647321 137.02275575811314 H 0.0 **** 0.06
9281 C 81.50548200178542 108.36796202216397 72.1649511093222 C 0.0 **** -0.24
9282 H 82.26607364876048 107.59903121274795 72.30452778002933 H 0.0 **** 0.06
9283 H 80.74940113635648 108.27714660392877 72.94463766944796 H 0.0 **** 0.06
9284 H 81.03847953552764 108.24251629969541 71.18779045707765 H 0.0 **** 0.06
9285 H 81.9700557043227 109.35219688339555 72.22119039199589 H 0.0 **** 0.06
9286 C 18.347039464854838 36.6885329408839 2.3514506981113925 C 0.0 **** -0.24
9287 H 18.183857524894684 35.62125987773432 2.4954981527450855 H 0.0 **** 0.06
9288 H 19.111321413588584 36.83894818442681 1.588106572693789 H 0.0 **** 0.06
9289 H 18.676594835237495 37.13521349405916 3.2892921475783226 H 0.0 **** 0.06
9290 H 17.416753901521545 37.15916883096271 2.0316202441320286 H 0.0 **** 0.06
9291 C 147.5285084424615 44.14138314132599 40.89176458235556 C 0.0 **** -0.24
9292 H 147.3104369148778 44.348391964218564 39.84382468588856 H 0.0 **** 0.06
9293 H 146.93509061676997 44.80329243986151 41.52311808390695 H 0.0 **** 0.06
9294 H 148.5891184591442 44.31159865835001 41.08182242387876 H 0.0 **** 0.06
9295 H 147.2812473511754 43.104596528333744 41.11628468974281 H 0.0 **** 0.06
9296 C 75.58266684696143 161.3010359193525 79.17121779096277 C 0.0 **** -0.24
9297 H 76.32378401057466 162.0391182740682 78.86324755472134 H 0.0 **** 0.06
9298 H 74.89394551212797 161.75415541323534 79.88421603826902 H 0.0 **** 0.06
9299 H 76.08567716175452 160.45489500062996 79.63809677957272 H 0.0 **** 0.06
9300 H 75.02810649057426 160.95785312266008 78.29844049784225 H 0.0 **** 0.06
9301 C 99.6213303530277 143.66505049369317 150.84869154086545 C 0.0 **** -0.24
9302 H 99.13550356097517 144.55328380959605 150.44554796506924 H 0.0 **** 0.06
9303 H 100.5608249256079 143.49506839030698 150.3236640546935 H 0.0 **** 0.06
9304 H 98.96838532738252 142.80191100120584 150.71465459655448 H 0.0 **** 0.06
9305 H 99.81919507099292 143.8100070943409 151.91088691030973 H 0.0 **** 0.06
9306 C 99.69804947811977 86.22120491390572 153.63269294035388 C 0.0 **** -0.24
9307 H 99.15552520227456 87.00356972820829 154.16294811302743 H 0.0 **** 0.06
9308 H 99.64884658228303 85.29417501981541 154.20501150914873 H 0.0 **** 0.06
9309 H 100.73953706818861 86.51883997064968 153.51258125567298 H 0.0 **** 0.06
9310 H 99.24808666585423 86.06700988881013 152.65234239365506 H 0.0 **** 0.06
9311 C 12.243139868987043 126.79472021725638 30.92239794169612 C 0.0 **** -0.24
9312 H 12.236930722199418 125.70578115780808 30.95763990568753 H 0.0 **** 0.06
9313 H 12.717741100839078 127.12483931474472 29.997294181761447 H 0.0 **** 0.06
9314 H 12.799254644045789 127.18331695116743 31.775363816044205 H 0.0 **** 0.06
9315 H 11.218548692688387 127.16462530909573 30.95708211487971 H 0.0 **** 0.06
9316 C 48.22237365559461 77.23590513400529 16.207314388961187 C 0.0 **** -0.24
9317 H 48.90947241952402 78.06283821252805 16.028085969174676 H 0.0 **** 0.06
9318 H 47.266048248703186 77.62806809364602 16.555124426103703 H 0.0 **** 0.06
9319 H 48.6420032718472 76.57339468078531 16.96544814428217 H 0.0 **** 0.06
9320 H 48.07311703907284 76.68100277021372 15.281522479122003 H 0.0 **** 0.06
9321 C 20.965703767502987 44.317948062099305 62.40739226969444 C 0.0 **** -0.24
9322 H 20.17194081560629 43.894685148233876 63.021659874715354 H 0.0 **** 0.06
9323 H 20.54267334808155 45.05735685200777 61.72743215376555 H 0.0 **** 0.06
9324 H 21.442227145074845 43.52491388635157 61.831100570761365 H 0.0 **** 0.06
9325 H 21.705533772463298 44.79573430576791 63.04936478827044 H 0.0 **** 0.06
9326 C 35.22506712342715 147.32281869420683 77.24888653262906 C 0.0 **** -0.24
9327 H 35.42899324005792 146.63698926912082 76.42640735104601 H 0.0 **** 0.06
9328 H 34.9817695963105 148.30751512799935 76.84835047043228 H 0.0 **** 0.06
9329 H 36.10635289904103 147.39787596460292 77.8860973696537 H 0.0 **** 0.06
9330 H 34.38495867730228 146.949940003907 77.83388747718222 H 0.0 **** 0.06
9331 C 5.3617840092381925 136.7322524240344 77.64500052303968 C 0.0 **** -0.24
9332 H 5.512650983139366 137.3135616795384 76.73594797778117 H 0.0 **** 0.06
9333 H 4.8533163181666765 135.79920710280447 77.39820516351973 H 0.0 **** 0.06
9334 H 4.753546750055072 137.3036176792314 78.3456145483868 H 0.0 **** 0.06
9335 H 6.32767536233353 136.51008967452486 78.09862863284982 H 0.0 **** 0.06
9336 C 33.12996277366267 62.8692086849893 10.183628590556907 C 0.0 **** -0.24
9337 H 32.83753079091218 62.84860680492258 11.232687170663638 H 0.0 **** 0.06
9338 H 34.17929838798693 62.58801813564412 10.093809307758761 H 0.0 **** 0.06
9339 H 32.987206513600654 63.87358259661187 9.785610330226746 H 0.0 **** 0.06
9340 H 32.51671095163681 62.164830312103106 9.621004216093155 H 0.0 **** 0.06
9341 C 84.30810643843995 15.754201259994026 14.548526902273522 C 0.0 **** -0.24
9342 H 83.40436167636808 15.15902567084013 14.679099782569835 H 0.0 **** 0.06
9343 H 84.03491473949609 16.78831098505313 14.335751753541558 H 0.0 **** 0.06
9344 H 84.88914951548438 15.35390012065728 13.716740364017824 H 0.0 **** 0.06
9345 H 84.90450376353368 15.715274792766877 15.459572888899402 H 0.0 **** 0.06
9346 C 156.36003682289004 144.69376285660354 122.11824972327796 C 0.0 **** -0.24
9347 H 156.18966585360113 145.01975712018816 121.09193040417352 H 0.0 **** 0.06
9348 H 155.40261457903117 144.47211287747353 122.59122946035504 H 0.0 **** 0.06
9349 H 156.86490895771095 145.48464919619107 122.67099172042586 H 0.0 **** 0.06
9350 H 156.9805558240804 143.79733047689348 122.11624226856728 H 0.0 **** 0.06
9351 C 9.440824527719712 84.48185578539074 57.42950778185191 C 0.0 **** -0.24
9352 H 10.241026475431084 85.01941888674122 57.93894240233068 H 0.0 **** 0.06
9353 H 9.685165083630352 84.38471846349825 56.37107501164526 H 0.0 **** 0.06
9354 H 8.506815474088597 85.03362969685998 57.53782910065509 H 0.0 **** 0.06
9355 H 9.330903318066476 83.49093072144927 57.8702080259428 H 0.0 **** 0.06
9356 C 80.26056855844661 139.39275562723066 70.12252699870133 C 0.0 **** -0.24
9357 H 80.64743012139354 139.22901169685454 71.12859207042587 H 0.0 **** 0.06
9358 H 79.8254845769548 140.3915788907072 70.05909230912573 H 0.0 **** 0.06
9359 H 79.49638931854088 138.64838458560533 69.90102379780316 H 0.0 **** 0.06
9360 H 81.07426612316823 139.30473316103706 69.40172729434262 H 0.0 **** 0.06
9361 C 28.33460575914353 42.68741111278976 122.51118384473264 C 0.0 **** -0.24
9362 H 27.434968456628667 42.14567137703659 122.80304448923883 H 0.0 **** 0.06
9363 H 28.918238003208558 42.927125651662095 123.40022558222188 H 0.0 **** 0.06
9364 H 28.054165291699178 43.609552240218534 122.00040522824293 H 0.0 **** 0.06
9365 H 28.93033552497269 42.06799228376104 121.84101804137151 H 0.0 **** 0.06
9366 C 115.3800187104504 8.323052098088624 21.464053225011327 C 0.0 **** -0.24
9367 H 115.81574003607281 7.525096033910245 20.863605165267018 H 0.0 **** 0.06
9368 H 116.1115507677612 8.669444310021163 22.195331007129482 H 0.0 **** 0.06
9369 H 114.49786220810202 7.946495528578907 21.982772744872165 H 0.0 **** 0.06
9370 H 115.09443354757053 9.151931131031688 20.81559308783426 H 0.0 **** 0.06
9371 C 69.92483865811238 51.3265592152748 121.74626041591387 C 0.0 **** -0.24
9372 H 69.39777172250152 51.337379148239975 120.7924385153521 H 0.0 **** 0.06
9373 H 70.96841849849619 51.05689249101627 121.58199888554483 H 0.0 **** 0.06
9374 H 69.46055190806601 50.59556875981288 122.40918172500145 H 0.0 **** 0.06
9375 H 69.87196322292311 52.315659349884044 122.20123510578199 H 0.0 **** 0.06
9376 C 96.61600358347837 135.44857636570464 1.3561991837834384 C 0.0 **** -0.24
9377 H 95.65400391347791 135.94230029842063 1.2189907037335956 H 0.0 **** 0.06
9378 H 96.67290110280362 135.0389090545476 2.364759160715707 H 0.0 **** 0.06
9379 H 97.41854158023875 136.17042913370312 1.2110160439321973 H 0.0 **** 0.06
9380 H 96.71647480430488 134.64205730078888 0.630528900988331 H 0.0 **** 0.06
9381 C 38.63782027086525 51.590758075291845 93.44222532856763 C 0.0 **** -0.24
9382 H 38.764399756646185 51.39005746958897 94.50614720563479 H 0.0 **** 0.06
9383 H 37.603494475796836 51.39744933787432 93.15640762202264 H 0.0 **** 0.06
9384 H 39.300944201383544 50.94319322794905 92.86878895794509 H 0.0 **** 0.06
9385 H 38.88174383069108 52.63299742855476 93.23782066497137 H 0.0 **** 0.06
9386 C 41.92317642152423 59.888142078427904 105.3439814428192 C 0.0 **** -0.24
9387 H 41.54540555241175 58.89374492021864 105.10340015146346 H 0.0 **** 0.06
9388 H 42.1303253028384 59.94902620785638 106.41340015651531 H 0.0 **** 0.06
9389 H 41.17659654508772 60.63546819220369 105.07438908864447 H 0.0 **** 0.06
9390 H 42.84055997468698 60.072943756510426 104.78495584711709 H 0.0 **** 0.06
9391 C 27.145798138773557 103.54100571508417 145.63243958453359 C 0.0 **** -0.24
9392 H 27.488703681720494 104.42509788243405 145.09423357630538 H 0.0 **** 0.06
9393 H 27.905972392601768 103.23668884039162 146.35259458834952 H 0.0 **** 0.06
9394 H 26.969969319546436 102.72998797518989 144.92508936349205 H 0.0 **** 0.06
9395 H 26.2193172783887 103.77280314544566 146.15752625718315 H 0.0 **** 0.06
9396 C 75.57073411620051 158.89026272610343 33.79580882244926 C 0.0 **** -0.24
9397 H 76.52544048694338 158.77016494848732 33.28367395014999 H 0.0 **** 0.06
9398 H 75.33220388502907 157.97446812329665 34.337432728185206 H 0.0 **** 0.06
9399 H 74.78855255229733 159.09312845625942 33.06360230629156 H 0.0 **** 0.06
9400 H 75.6369100775332 159.72194626319504 34.49705420298301 H 0.0 **** 0.06
9401 C 105.4364901978694 25.8473249241147 114.55227762761692 C 0.0 **** -0.24
9402 H 105.10745931869425 24.813419625335882 114.44825663072771 H 0.0 **** 0.06
9403 H 105.91035628044554 26.17261480366301 113.62614195419573 H 0.0 **** 0.06
9404 H 106.15242823737 25.918581019072462 115.37126734494387 H 0.0 **** 0.06
9405 H 104.57684392644995 26.483318649058248 114.76481031287699 H 0.0 **** 0.06
9406 C 109.91645152939654 119.2780962513495 127.21073348611503 C 0.0 **** -0.24
9407 H 110.48059472729454 119.53021644469726 126.31335358528045 H 0.0 **** 0.06
9408 H 109.39736117715248 120.16580622651992 127.57501651479379 H 0.0 **** 0.06
9409 H 110.59969133331404 118.91592872341727 127.97936924413378 H 0.0 **** 0.06
9410 H 109.18848120748393 118.50128884732032 126.9762738294549 H 0.0 **** 0.06
9411 C 71.860896078856 117.64293384912335 130.58248626594596 C 0.0 **** -0.24
9412 H 71.56992689263484 116.6162738384441 130.36416778671 H 0.0 **** 0.06
9413 H 71.82319747735079 118.23349591717229 129.66673513395793 H 0.0 **** 0.06
9414 H 72.87561226915821 117.65589099804217 130.9810700575803 H 0.0 **** 0.06
9415 H 71.17598644752638 118.06714522199897 131.31672421494054 H 0.0 **** 0.06
9416 C 80.61076769090467 43.40356066032541 63.05242816880312 C 0.0 **** -0.24
9417 H 80.88923359051051 43.520732540520896 62.00451386494544 H 0.0 **** 0.06
9418 H 81.48539045268272 43.57509393353894 63.68079768661319 H 0.0 **** 0.06
9419 H 80.23757172686705 42.39369424160964 63.21743844519794 H 0.0 **** 0.06
9420 H 79.833685370228 44.12485581159365 63.30449604511345 H 0.0 **** 0.06
9421 C 139.65848137997452 102.54479203705003 148.07527509910432 C 0.0 **** -0.24
9422 H 138.6298760652593 102.89852347676566 148.00695948929294 H 0.0 **** 0.06
9423 H 139.6804573498188 101.59513801558796 148.611841233296 H 0.0 **** 0.06
9424 H 140.26046786401986 103.2787324831674 148.61036904295725 H 0.0 **** 0.06
9425 H 140.06197348553553 102.40485768571173 147.0719853202262 H 0.0 **** 0.06
9426 C 71.92794724177861 104.01512582717231 153.6651728798475 C 0.0 **** -0.24
9427 H 71.37742456043974 103.26689547154771 153.09437432759316 H 0.0 **** 0.06
9428 H 71.30369178449205 104.89815865873129 153.80160233750473 H 0.0 **** 0.06
9429 H 72.83302191613967 104.2900421424853 153.1232497128759 H 0.0 **** 0.06
9430 H 72.19594194200499 103.60482963912267 154.63775741280472 H 0.0 **** 0.06
9431 C 145.771940593038 103.95897442188632 49.332611856238714 C 0.0 **** -0.24
9432 H 145.08213710014613 104.51565599972227 48.699131323494896 H 0.0 **** 0.06
9433 H 146.7907089620766 104.09432793246717 48.96910078240137 H 0.0 **** 0.06
9434 H 145.51453795143186 102.89956360252827 49.30702891606728 H 0.0 **** 0.06
9435 H 145.70005888077702 104.32499991845424 50.35720506150699 H 0.0 **** 0.06
9436 C 39.283988866987215 72.35270807854761 156.64694113938546 C 0.0 **** -0.24
9437 H 38.663729836654966 71.49167182971263 156.3955128073075 H 0.0 **** 0.06
9438 H 40.29402523606592 72.19523033759151 156.26734111393193 H 0.0 **** 0.06
9439 H 39.317088668443944 72.47087777447888 157.73004925238715 H 0.0 **** 0.06
9440 H 38.8604558946754 73.24937899543511 156.1951381661134 H 0.0 **** 0.06
9441 C 106.1713418971749 138.62304931004522 143.78778473935017 C 0.0 **** -0.24
9442 H 106.55282697165944 137.64310096831053 144.07615822659318 H 0.0 **** 0.06
9443 H 106.5838249660618 139.38255853230888 144.45320217647327 H 0.0 **** 0.06
9444 H 105.08491956553144 138.6257646691031 143.86186530918204 H 0.0 **** 0.06
9445 H 106.46639827103604 138.84021395528185 142.76162096942147 H 0.0 **** 0.06
9446 C 78.57500135373937 157.73351255634748 42.83420509173264 C 0.0 **** -0.24
9447 H 78.12997966262265 157.0892319967852 42.07624394683715 H 0.0 **** 0.06
9448 H 77.98219974666074 158.64448828209936 42.928138037793204 H 0.0 **** 0.06
9449 H 79.5925484976712 157.9901473828366 42.54033059940522 H 0.0 **** 0.06
9450 H 78.59214743142488 157.21131715062938 43.79072368557692 H 0.0 **** 0.06
9451 C 110.10178266050812 158.0252833322527 15.092662262984788 C 0.0 **** -0.24
9452 H 110.3270845602951 159.08691542323413 15.188522475704417 H 0.0 **** 0.06
9453 H 110.48234444876613 157.49392086715113 15.964882709356118 H 0.0 **** 0.06
9454 H 110.57483199648294 157.63346715991614 14.191806397205141 H 0.0 **** 0.06
9455 H 109.02222460287774 157.88808514537325 15.025528560857424 H 0.0 **** 0.06
9456 C 128.427385639246 113.77581122156039 80.41768099234264 C 0.0 **** -0.24
9457 H 127.92664531130916 114.74362007886577 80.39036805083941 H 0.0 **** 0.06
9458 H 127.6808128829947 112.98126005569517 80.44368980391906 H 0.0 **** 0.06
9459 H 129.0538183562109 113.7161326324846 81.30749184987633 H 0.0 **** 0.06
9460 H 129.04777386583356 113.6630738340694 79.52814987514842 H 0.0 **** 0.06
9461 C 95.86268373457156 144.39397919027047 161.75037186786466 C 0.0 **** -0.24
9462 H 96.62523095857037 144.85483128291338 162.37859312549818 H 0.0 **** 0.06
9463 H 96.33159935549395 143.6729249341377 161.08073856573168 H 0.0 **** 0.06
9464 H 95.36265373337058 145.16485394791533 161.16313342161172 H 0.0 **** 0.06
9465 H 95.13212348515964 143.88542783098617 162.37988208117483 H 0.0 **** 0.06
9466 C 75.94199013092987 128.75583069062208 115.95323545287803 C 0.0 **** -0.24
9467 H 75.83395693815757 128.3674949166407 116.96583902978142 H 0.0 **** 0.06
9468 H 74.955464675864 128.92478797074497 115.52248518131768 H 0.0 **** 0.06
9469 H 76.48613150363491 128.03419624694172 115.34411744696149 H 0.0 **** 0.06
9470 H 76.49344313987444 129.69604917543487 115.98231571155816 H 0.0 **** 0.06
9471 C 78.01589417665053 149.04869974235314 64.48063899784277 C 0.0 **** -0.24
9472 H 77.44753736300936 148.87579290072267 63.565857241247286 H 0.0 **** 0.06
9473 H 77.3334571517945 149.31449227115337 65.28766246781532 H 0.0 **** 0.06
9474 H 78.72255233596235 149.86305326157702 64.3192591293342 H 0.0 **** 0.06
9475 H 78.55970355369266 148.1425933849705 64.74622601195328 H 0.0 **** 0.06
9476 C 145.65333514872702 137.74481436679136 89.61690937013299 C 0.0 **** -0.24
9477 H 144.72229945749189 138.23655327357375 89.33704116782184 H 0.0 **** 0.06
9478 H 146.47402148897694 138.1648997293307 89.03598936203329 H 0.0 **** 0.06
9479 H 145.57490217716443 136.67684767937845 89.4160829593356 H 0.0 **** 0.06
9480 H 145.84229430535606 137.9017463443081 90.67968389908833 H 0.0 **** 0.06
9481 C 141.39621896305758 56.88576911193542 21.965505008604907 C 0.0 **** -0.24
9482 H 140.3072660991208 56.84977127261632 21.996979945884277 H 0.0 **** 0.06
9483 H 141.71647888542157 57.87056477267433 21.622360715294377 H 0.0 **** 0.06
9484 H 141.76487605373916 56.123687687257245 21.279497951206167 H 0.0 **** 0.06
9485 H 141.79461991447934 56.70156752833873 22.9631258325347 H 0.0 **** 0.06
9486 C 159.18507188264994 35.636303349000514 89.07544526578134 C 0.0 **** -0.24
9487 H 160.25037980078014 35.41490162278859 89.15322204149138 H 0.0 **** 0.06
9488 H 158.88429535441048 36.26829951476009 89.91210543351032 H 0.0 **** 0.06
9489 H 158.6192996294328 34.70515569169174 89.10164918142658 H 0.0 **** 0.06
9490 H 158.9892141830137 36.15497991061142 88.13797623405286 H 0.0 **** 0.06
9491 C 25.73160023602736 8.488029918681086 43.829505205779014 C 0.0 **** -0.24
9492 H 24.672805126365432 8.294691992198779 43.654796180739936 H 0.0 **** 0.06
9493 H 25.837207392112987 9.25618109473836 44.59624752586683 H 0.0 **** 0.06
9494 H 26.19582921811272 8.829819347656823 42.904954901710084 H 0.0 **** 0.06
9495 H 26.217333183734183 7.570975077576314 44.163567760627984 H 0.0 **** 0.06
9496 C 128.24601171190534 32.26613929185847 118.77409869816333 C 0.0 **** -0.24
9497 H 127.19144065455532 32.4515704599972 118.97485472852568 H 0.0 **** 0.06
9498 H 128.7235770414464 33.192679447560494 118.45561863920082 H 0.0 **** 0.06
9499 H 128.339967095901 31.518937014302224 117.98590455533278 H 0.0 **** 0.06
9500 H 128.72886730417792 31.90039011457681 119.67997885320347 H 0.0 **** 0.06
9501 C 49.14525204028689 26.04237359267978 94.17065075637495 C 0.0 **** -0.24
9502 H 49.137059788697414 25.088596725982484 93.6424354105212 H 0.0 **** 0.06
9503 H 49.27302464559652 25.864729087657565 95.23885414169882 H 0.0 **** 0.06
9504 H 48.20270963912286 26.56152664832655 93.99857006282163 H 0.0 **** 0.06
9505 H 49.96976328158206 26.653115717002038 93.80326387952766 H 0.0 **** 0.06
9506 C 129.35771996467844 78.92640909303636 19.918292213848474 C 0.0 **** -0.24
9507 H 129.0699528270906 78.38008174283421 19.019749853275272 H 0.0 **** 0.06
9508 H 129.25420391332085 78.27574770699646 20.787350371297464 H 0.0 **** 0.06
9509 H 128.71319630466868 79.7967735791481 20.036447758812642 H 0.0 **** 0.06
9510 H 130.39460919494474 79.25093077349175 19.828982254329816 H 0.0 **** 0.06
9511 C 71.0069942744697 135.54870367108214 87.89278634488332 C 0.0 **** -0.24
9512 H 71.14205457828493 135.91375968261332 86.87470792190918 H 0.0 **** 0.06
9513 H 71.50784661515897 134.5867079134886 88.0029859868286 H 0.0 **** 0.06
9514 H 69.94358687113632 135.43115868427952 88.09837985370059 H 0.0 **** 0.06
9515 H 71.4361381795497 136.2641038876204 88.5944065404026 H 0.0 **** 0.06
9516 C 137.54799730147533 128.35675284559875 84.89188712116356 C 0.0 **** -0.24
9517 H 138.03755376074872 128.95293701047152 84.12057471451999 H 0.0 **** 0.06
9518 H 136.6495518932378 128.87235018530154 85.23246914644545 H 0.0 **** 0.06
9519 H 138.22883229738966 128.21802980094142 85.73094876489023 H 0.0 **** 0.06
9520 H 137.27522695641392 127.38431390437145 84.47995903356832 H 0.0 **** 0.06
9521 C 9.967644709748555 65.89103522820358 163.05749347806463 C 0.0 **** -0.24
9522 H 9.770812001017163 66.39341397051143 162.10995067375765 H 0.0 **** 0.06
9523 H 10.893595415811035 65.3209077129163 162.9793604170682 H 0.0 **** 0.06
9524 H 9.143298406655504 65.21715524060157 163.28790126862475 H 0.0 **** 0.06
9525 H 10.06350053537841 66.63375974543179 163.84883649876406 H 0.0 **** 0.06
9526 C 150.12852187843907 95.41270146172965 152.1016267509091 C 0.0 **** -0.24
9527 H 150.6795459688832 94.47234153635853 152.06235132606852 H 0.0 **** 0.06
9528 H 149.16057006037883 95.24590847376635 152.57504227267285 H 0.0 **** 0.06
9529 H 149.97950510213 95.78835219531555 151.08919236295793 H 0.0 **** 0.06
9530 H 150.69638227491416 96.14115919823574 152.68095116018353 H 0.0 **** 0.06
9531 C 30.4652934055309 121.506905214472 87.86003455740484 C 0.0 **** -0.24
9532 H 30.731570155066983 120.6732401244904 87.21012681648847 H 0.0 **** 0.06
9533 H 29.59714173824934 121.23561551180873 88.46083688775968 H 0.0 **** 0.06
9534 H 30.229996673358563 122.38072272857201 87.25198170417752 H 0.0 **** 0.06
9535 H 31.304789459685814 121.73729457217743 88.51699803813437 H 0.0 **** 0.06
9536 C 75.88011665459453 55.26607087682987 51.819804324102364 C 0.0 **** -0.24
9537 H 75.8321310952011 54.56813007388223 50.98480202839481 H 0.0 **** 0.06
9538 H 76.91409445295284 55.576957361720076 51.974741124545446 H 0.0 **** 0.06
9539 H 75.50723019153429 54.78095852048577 52.721863935726674 H 0.0 **** 0.06
9540 H 75.26813788719252 56.14092350533963 51.597092033679814 H 0.0 **** 0.06
9541 C 78.69515840796109 159.75256127621006 133.4820226175081 C 0.0 **** -0.24
9542 H 79.73954345929377 159.82158105418958 133.17462540234618 H 0.0 **** 0.06
9543 H 78.44801363670553 160.59929997199498 134.12148634952396 H 0.0 **** 0.06
9544 H 78.53977999540228 158.82423334462524 134.0314975021789 H 0.0 **** 0.06
9545 H 78.0555503029951 159.7640094312771 132.59884919082617 H 0.0 **** 0.06
9546 C 84.08082811405279 118.76167678568126 153.2229992777927 C 0.0 **** -0.24
9547 H 83.58694101037048 118.01976173578794 152.59594630791 H 0.0 **** 0.06
9548 H 83.33292557105187 119.42030020108041 153.66376544949395 H 0.0 **** 0.06
9549 H 84.77117170048291 119.34818874334061 152.616825779914 H 0.0 **** 0.06
9550 H 84.63378976541173 118.25653962322502 154.01562954977143 H 0.0 **** 0.06
9551 C 138.5713401803461 56.72335324036963 123.00286664527658 C 0.0 **** -0.24
9552 H 138.56894480320452 57.518503676110456 122.25668976864586 H 0.0 **** 0.06
9553 H 139.57234987064527 56.622268595224085 123.4224382788307 H 0.0 **** 0.06
9554 H 138.27661133285335 55.78454027845291 122.5353252604751 H 0.0 **** 0.06
9555 H 137.8675212501976 56.970146695361336 123.79791240999953 H 0.0 **** 0.06
9556 C 102.01376155295944 0.9016175008744369 65.49034413460521 C 0.0 **** -0.24
9557 H 102.63982675493591 0.016665729754606673 65.3778782694701 H 0.0 **** 0.06
9558 H 102.09553203817947 1.5202594693421645 64.59539071334801 H 0.0 **** 0.06
9559 H 102.34470440001044 1.4716620129321996 66.35820583370102 H 0.0 **** 0.06
9560 H 100.97645565612873 0.5977887974511873 65.62794655304872 H 0.0 **** 0.06
9561 C 44.32697929094985 132.1287297818604 159.55945428033223 C 0.0 **** -0.24
9562 H 43.3392119116954 132.57101281374156 159.69370485540855 H 0.0 **** 0.06
9563 H 45.02967742154215 132.59202092893747 160.25233415332073 H 0.0 **** 0.06
9564 H 44.66247842002201 132.29449971338025 158.53504100379857 H 0.0 **** 0.06
9565 H 44.27428614371672 131.05739529648363 159.75580024609735 H 0.0 **** 0.06
9566 C 141.1414523993816 160.95454849643775 61.9608525366546 C 0.0 **** -0.24
9567 H 142.0831314811997 160.44875629402372 61.74432389645284 H 0.0 **** 0.06
9568 H 140.32202537924957 160.41305658584943 61.48731716339459 H 0.0 **** 0.06
9569 H 141.17795394370032 161.97169417754455 61.571155029723045 H 0.0 **** 0.06
9570 H 140.9845336850332 160.98271059204393 63.03929969823088 H 0.0 **** 0.06
9571 C 39.208763910419634 128.90606043796086 145.7213165925318 C 0.0 **** -0.24
9572 H 39.858219166284016 129.39666120277403 146.44578439233038 H 0.0 **** 0.06
9573 H 38.23580494962874 128.71692675758078 146.1749730387254 H 0.0 **** 0.06
9574 H 39.65653885086658 127.96142010136774 145.41393723442812 H 0.0 **** 0.06
9575 H 39.08488342405997 129.5498252051386 144.8498663995622 H 0.0 **** 0.06
9576 C 39.321281082350424 125.39388805660175 145.18012230449557 C 0.0 **** -0.24
9577 H 38.39967304125395 125.2431964413125 144.61671254796147 H 0.0 **** 0.06
9578 H 39.759322882341166 124.42615038444995 145.42381888980287 H 0.0 **** 0.06
9579 H 39.100934607705256 125.93568413895116 146.09944774556516 H 0.0 **** 0.06
9580 H 40.02407095119963 125.9699322719178 144.57798168591864 H 0.0 **** 0.06
9581 C 29.796876162476124 120.38534425033055 0.675247806176543 C 0.0 **** -0.24
9582 H 30.690302634584192 120.93800104087182 0.965994205769249 H 0.0 **** 0.06
9583 H 29.012431144896986 120.54964718556303 1.4148094682122405 H 0.0 **** 0.06
9584 H 30.029489367948763 119.3220912634632 0.6216659072300956 H 0.0 **** 0.06
9585 H 29.45641201016484 120.73205957600123 -0.29934669167815287 H 0.0 **** 0.06
9586 C 96.66835853650497 128.3407189641266 58.68003344301701 C 0.0 **** -0.24
9587 H 96.40134189852051 128.61861972694095 59.700073718858164 H 0.0 **** 0.06
9588 H 96.06779186672676 127.48538180133451 58.36862871634466 H 0.0 **** 0.06
9589 H 97.72467679039224 128.07741811799568 58.63986845831846 H 0.0 **** 0.06
9590 H 96.47706126391807 129.181654805741 58.01311055892279 H 0.0 **** 0.06
9591 C 88.23147374039765 157.00944693295472 155.3804906735911 C 0.0 **** -0.24
9592 H 87.73495697307426 157.7679214856634 154.77576652944748 H 0.0 **** 0.06
9593 H 88.87875205095499 156.40565342814492 154.74364055097857 H 0.0 **** 0.06
9594 H 87.48349761546676 156.3706957368134 155.8486150554503 H 0.0 **** 0.06
9595 H 88.83042986674724 157.4942149742392 156.15139492117606 H 0.0 **** 0.06
9596 C 143.27708364225762 149.8302895073095 150.07926721543785 C 0.0 **** -0.24
9597 H 143.79427199593096 148.87097650664072 150.0949077618868 H 0.0 **** 0.06
9598 H 143.37726241674514 150.28164986719457 149.0923832898966 H 0.0 **** 0.06
9599 H 143.7158311257097 150.490620080364 150.82864635606163 H 0.0 **** 0.06
9600 H 142.22148395851565 149.67748526531125 150.3040560702788 H 0.0 **** 0.06
9601 C 87.56500881996074 96.05935356677706 50.15413138155418 C 0.0 **** -0.24
9602 H 88.55650830826967 95.78991029179764 49.78918348806121 H 0.0 **** 0.06
9603 H 87.32451042557119 95.45693861763773 51.02997303356668 H 0.0 **** 0.06
9604 H 86.82796740214575 95.87582064591324 49.372223792975774 H 0.0 **** 0.06
9605 H 87.5525481435388 97.1159247090826 50.4236087262243 H 0.0 **** 0.06
9606 C 94.98756392650331 35.147108291480436 15.878818853947877 C 0.0 **** -0.24
9607 H 96.07702528546235 35.15721367554272 15.843538695116763 H 0.0 **** 0.06
9608 H 94.60314341942218 36.10066234390325 15.516453835883482 H 0.0 **** 0.06
9609 H 94.65833051163132 34.98852954281949 16.90614938522583 H 0.0 **** 0.06
9610 H 94.61183270740321 34.340619549738676 15.249241366873349 H 0.0 **** 0.06
9611 C 0.9542736455069303 70.32864376404079 96.61705586842697 C 0.0 **** -0.24
9612 H 0.3418887467902323 70.64253905004038 95.77220007140674 H 0.0 **** 0.06
9613 H 2.0009797581419093 70.29228265458873 96.31478935557536 H 0.0 **** 0.06
9614 H 0.6370108801758647 69.33964169589827 96.94879390490027 H 0.0 **** 0.06
9615 H 0.8362818876699976 71.04024123193432 97.43470118691775 H 0.0 **** 0.06
9616 C 104.71061487410358 120.43160398159895 72.63152541733645 C 0.0 **** -0.24
9617 H 105.13586975341272 120.79285345924686 73.56723152601171 H 0.0 **** 0.06
9618 H 104.82421387179625 121.19512526293528 71.86220145091502 H 0.0 **** 0.06
9619 H 103.65288745879658 120.2133035485011 72.77346711692702 H 0.0 **** 0.06
9620 H 105.23068023865335 119.52439274238688 72.32337666977322 H 0.0 **** 0.06
9621 C 139.1747425466472 82.92840414616553 60.408962448815146 C 0.0 **** -0.24
9622 H 139.6625047145858 83.7850638793793 60.874215099554135 H 0.0 **** 0.06
9623 H 138.10124714185827 83.11037777983856 60.349061710831506 H 0.0 **** 0.06
9624 H 139.35827863143635 82.03587102841797 61.00782472046188 H 0.0 **** 0.06
9625 H 139.57513653335505 82.78258303568172 59.40604086923281 H 0.0 **** 0.06
9626 C 8.950788994904379 149.41043688660207 0.38435051860015434 C 0.0 **** -0.24
9627 H 9.720679047888105 150.04158397450064 -0.06017904534034457 H 0.0 **** 0.06
9628 H 7.966732538954808 149.80186797306786 0.12485200841374677 H 0.0 **** 0.06
9629 H 9.06620229520152 149.40639645878707 1.4685964896899293 H 0.0 **** 0.06
9630 H 9.050679287133946 148.39405322165234 0.004391297971842789 H 0.0 **** 0.06
9631 C 90.71535766995984 100.50576231371835 155.3390962990003 C 0.0 **** -0.24
9632 H 90.67801288049445 101.2460169300985 156.13763389566884 H 0.0 **** 0.06
9633 H 91.6592523426873 100.5980054183967 154.8011707152051 H 0.0 **** 0.06
9634 H 89.88715621418757 100.67313410144374 154.64910285905046 H 0.0 **** 0.06
9635 H 90.63578232050003 99.50559918563499 155.76575582934703 H 0.0 **** 0.06
9636 C 78.36850307906167 147.97099235799348 147.80886146335558 C 0.0 **** -0.24
9637 H 78.93264714831298 148.1091986516809 146.88612132293167 H 0.0 **** 0.06
9638 H 78.84499717341885 148.5315100183611 148.61279129181946 H 0.0 **** 0.06
9639 H 78.34636115954851 146.9124304784404 148.06628584950255 H 0.0 **** 0.06
9640 H 77.34913651515603 148.33176185228575 147.66718551801017 H 0.0 **** 0.06
9641 C 125.01711904445662 23.415144748163982 126.03840157508827 C 0.0 **** -0.24
9642 H 125.53428022466733 23.020899534353816 125.16359766395692 H 0.0 **** 0.06
9643 H 123.96938441125948 23.117058280127765 126.00483908644443 H 0.0 **** 0.06
9644 H 125.08657785738615 24.503422504650985 126.04184927359174 H 0.0 **** 0.06
9645 H 125.47990676751198 23.019521581989522 126.94227306858525 H 0.0 **** 0.06
9646 C 110.80123945737284 108.09127406624808 82.61979766904325 C 0.0 **** -0.24
9647 H 111.88203751127025 108.21618732883391 82.55778893212467 H 0.0 **** 0.06
9648 H 110.5706011227017 107.21731780265424 83.22799848093597 H 0.0 **** 0.06
9649 H 110.39282200524883 107.9558419902288 81.61803411867976 H 0.0 **** 0.06
9650 H 110.35882867461044 108.97731395405938 83.0750458109178 H 0.0 **** 0.06
9651 C 78.997510880748 72.3556113844507 151.244298619924 C 0.0 **** -0.24
9652 H 79.54122780259087 73.27526950477481 151.45870637265222 H 0.0 **** 0.06
9653 H 77.98981209842793 72.42543344784161 151.65463131137278 H 0.0 **** 0.06
9654 H 79.51813196607537 71.51219731072155 151.69829889961537 H 0.0 **** 0.06
9655 H 78.94172529393654 72.20970731364324 150.1650628449643 H 0.0 **** 0.06
9656 C 79.18031595310477 26.731937724810336 108.81800532383443 C 0.0 **** -0.24
9657 H 78.35182281845876 26.51544736324155 108.14318614684805 H 0.0 **** 0.06
9658 H 79.0917738801538 26.114419444245186 109.71174875775449 H 0.0 **** 0.06
9659 H 79.15249249500486 27.78492173801834 109.09884582773827 H 0.0 **** 0.06
9660 H 80.12339719296922 26.515215579922994 108.31691239472411 H 0.0 **** 0.06
9661 C 84.65741617831387 123.94774006497357 18.978197424779864 C 0.0 **** -0.24
9662 H 85.56980557365736 123.98574470688237 18.381813204037314 H 0.0 **** 0.06
9663 H 83.82850074105215 124.35512318925348 18.39817321346726 H 0.0 **** 0.06
9664 H 84.79159598875555 124.53780923691053 19.884863852172145 H 0.0 **** 0.06
9665 H 84.44140778031142 122.91438902053278 19.245320576610425 H 0.0 **** 0.06
9666 C 49.45543534483946 155.29692247993196 134.18892361948565 C 0.0 **** -0.24
9667 H 48.87522667640887 155.24658828791016 133.26729937928607 H 0.0 **** 0.06
9668 H 48.84680283158332 154.94059210126946 135.02011853442536 H 0.0 **** 0.06
9669 H 49.75647651454081 156.32797116937147 134.3732647624249 H 0.0 **** 0.06
9670 H 50.3422746640438 154.6709930798628 134.0937120610853 H 0.0 **** 0.06
9671 C 27.90705568958333 158.48462626508297 9.24800390202239 C 0.0 **** -0.24
9672 H 28.990101496425176 158.39002308734246 9.180159758352197 H 0.0 **** 0.06
9673 H 27.51147234671376 157.68498723340667 9.874947376242645 H 0.0 **** 0.06
9674 H 27.473041020661604 158.41566812660753 8.25081892415298 H 0.0 **** 0.06
9675 H 27.654220795819896 159.45039347366168 9.68874209542976 H 0.0 **** 0.06
9676 C 33.78662170915014 91.51735816200687 49.32193382663604 C 0.0 **** -0.24
9677 H 33.938921589104865 90.90914287900037 48.43070728361988 H 0.0 **** 0.06
9678 H 33.55287360022204 92.54081650274289 49.02822528005086 H 0.0 **** 0.06
9679 H 34.69461951965933 91.51029830470625 49.92550404765501 H 0.0 **** 0.06
9680 H 32.96073928075887 91.10809937699129 49.90448111435683 H 0.0 **** 0.06
9681 C 125.08421608337537 119.62909319614371 78.5242099323262 C 0.0 **** -0.24
9682 H 124.70306014841987 118.61846304541268 78.37447437571309 H 0.0 **** 0.06
9683 H 124.78667105081209 119.9862855478948 79.51058636259883 H 0.0 **** 0.06
9684 H 124.67379225223655 120.28916860144466 77.76019187817032 H 0.0 **** 0.06
9685 H 126.1715751594692 119.62151065958798 78.45258183970938 H 0.0 **** 0.06
9686 C 89.77621433897298 83.29047465101849 77.20508699193292 C 0.0 **** -0.24
9687 H 90.66416920516286 82.9717747282657 76.65959239476977 H 0.0 **** 0.06
9688 H 88.94397268334114 82.62975315216465 76.96038755935595 H 0.0 **** 0.06
9689 H 89.52469953718142 84.31294408059881 76.9236950599193 H 0.0 **** 0.06
9690 H 89.97224736766913 83.2460318640513 78.27663995944302 H 0.0 **** 0.06
9691 C 122.9636051372733 112.56768887818518 84.74948947355261 C 0.0 **** -0.24
9692 H 122.15652508402275 112.29730634444715 85.4312577369211 H 0.0 **** 0.06
9693 H 122.58304872169845 113.24755952099855 83.98682664004706 H 0.0 **** 0.06
9694 H 123.35215767811428 111.66727530554516 84.27252384515852 H 0.0 **** 0.06
9695 H 123.76187337696433 113.05680417216638 85.30759062728117 H 0.0 **** 0.06
9696 C 45.352113117026235 11.657600090182427 1.9311205350737168 C 0.0 **** -0.24
9697 H 45.1624281606793 12.720688072483341 1.78461319737022 H 0.0 **** 0.06
9698 H 46.145767919575235 11.528301681717124 2.6672610407792945 H 0.0 **** 0.06
9699 H 45.65711130212274 11.210122211340604 0.9845126184030164 H 0.0 **** 0.06
9700 H 44.44327249804819 11.17273745863784 2.286124455920884 H 0.0 **** 0.06
9701 C 37.7517696194154 89.78880662142628 67.83011373531005 C 0.0 **** -0.24
9702 H 38.10156427257985 90.0343921218109 68.83232443577408 H 0.0 **** 0.06
9703 H 37.524072696563024 88.72454132913268 67.7751106659617 H 0.0 **** 0.06
9704 H 38.52789017942496 90.03318775572632 67.1042152431291 H 0.0 **** 0.06
9705 H 36.853342060680404 90.36497100804829 67.6081151163528 H 0.0 **** 0.06
9706 C 130.96077211619553 84.77539371277257 114.43658670555317 C 0.0 **** -0.24
9707 H 131.5086993050591 85.21710440903075 113.60336923265692 H 0.0 **** 0.06
9708 H 131.66585362759224 84.31717511432413 115.13076943448021 H 0.0 **** 0.06
9709 H 130.27627948052293 84.01577319962502 114.05846850123118 H 0.0 **** 0.06
9710 H 130.39464068451315 85.55096160851659 114.95150365838992 H 0.0 **** 0.06
9711 C 14.441022290079673 129.41682885751595 117.61805360523613 C 0.0 **** -0.24
9712 H 14.10574272174415 128.77369079707557 118.43241896317548 H 0.0 **** 0.06
9713 H 13.580780576506754 129.91402985269468 117.16916471101672 H 0.0 **** 0.06
9714 H 14.945598226149286 128.8130609554135 116.86380610035826 H 0.0 **** 0.06
9715 H 15.132525972495557 130.1641915489676 118.00637499664481 H 0.0 **** 0.06
9716 C 25.064218430116625 137.29645988478006 54.54395720745788 C 0.0 **** -0.24
9717 H 24.227388633214616 137.7720407640064 55.05662436073881 H 0.0 **** 0.06
9718 H 26.001083047633443 137.63755911248353 54.984295551209485 H 0.0 **** 0.06
9719 H 25.04039801990274 137.56134817152667 53.487245507182806 H 0.0 **** 0.06
9720 H 24.984894729241205 136.21383300746507 54.64915079682183 H 0.0 **** 0.06
9721 C 112.65952743736233 48.09511235510004 125.6818693920082 C 0.0 **** -0.24
9722 H 113.65007714399263 48.472968986150704 125.93538172882324 H 0.0 **** 0.06
9723 H 111.91999072139947 48.53848068160603 126.3491713095948 H 0.0 **** 0.06
9724 H 112.64511438413939 47.01043898731422 125.79204120304883 H 0.0 **** 0.06
9725 H 112.42378399886104 48.359073040953504 124.65094667816564 H 0.0 **** 0.06
9726 C 35.412146474013625 99.83069605984701 32.03705572030529 C 0.0 **** -0.24
9727 H 34.625771402653115 100.48730117568638 31.66202920519612 H 0.0 **** 0.06
9728 H 34.96123770542577 98.97290931006054 32.53599161673961 H 0.0 **** 0.06
9729 H 36.03447510885957 100.3775088171983 32.74451575109262 H 0.0 **** 0.06
9730 H 36.024406466748275 99.48640580204847 31.203701792619654 H 0.0 **** 0.06
9731 C 158.64577444873115 57.65985963783646 161.47242814171744 C 0.0 **** -0.24
9732 H 158.46554302129664 57.617619767982205 160.39882614598076 H 0.0 **** 0.06
9733 H 157.69337613785413 57.63854790593548 162.00250845213515 H 0.0 **** 0.06
9734 H 159.17699262886617 58.580692252935435 161.71616455498008 H 0.0 **** 0.06
9735 H 159.2491908459042 56.80295158233535 161.77313084167008 H 0.0 **** 0.06
9736 C 48.39320533221962 61.65991511507903 100.41838242579718 C 0.0 **** -0.24
9737 H 47.315071541172586 61.7464011261124 100.55109465270664 H 0.0 **** 0.06
9738 H 48.604883777833635 60.97797354200284 99.5946762950843 H 0.0 **** 0.06
9739 H 48.84278990886166 61.27474814691149 101.33404720928704 H 0.0 **** 0.06
9740 H 48.81093734944574 62.64163361266952 100.19395064231361 H 0.0 **** 0.06
9741 C 93.70545742287942 65.29278393837943 28.842174069892337 C 0.0 **** -0.24
9742 H 93.3509912848383 64.3473638498281 28.431433919448857 H 0.0 **** 0.06
9743 H 93.62877891642074 65.26849945614885 29.929411182995622 H 0.0 **** 0.06
9744 H 93.09722404301701 66.10851584741839 28.45263275741607 H 0.0 **** 0.06
9745 H 94.74535438255674 65.44596502606471 28.554167621435894 H 0.0 **** 0.06
9746 C 124.16706998798242 11.60602789441532 36.31490712327394 C 0.0 **** -0.24
9747 H 125.11797310767813 11.198023619700137 35.97147643074595 H 0.0 **** 0.06
9748 H 123.4796019241063 10.788620178114996 36.533388597210205 H 0.0 **** 0.06
9749 H 123.74203040934589 12.23935504378963 35.536069565216565 H 0.0 **** 0.06
9750 H 124.32968825843918 12.196199906241048 37.2163887535894 H 0.0 **** 0.06
9751 C 146.52136533729308 119.72413374160715 29.843061979242634 C 0.0 **** -0.24
9752 H 146.18811447041082 120.15076936184502 30.789442336981608 H 0.0 **** 0.06
9753 H 146.374403123638 118.64392540725277 29.85970339893362 H 0.0 **** 0.06
9754 H 147.57807909241484 119.94562933600173 29.697605594456377 H 0.0 **** 0.06
9755 H 145.94346905970536 120.15671169942868 29.02639187649376 H 0.0 **** 0.06
9756 C 3.245949753618582 34.58089935795135 122.24332614157493 C 0.0 **** -0.24
9757 H 3.7117891288846607 33.62164004171899 122.01690152461757 H 0.0 **** 0.06
9758 H 3.188536520554912 35.18046892622131 121.334988152714 H 0.0 **** 0.06
9759 H 3.842010054280081 35.10628314587571 122.98944198132904 H 0.0 **** 0.06
9760 H 2.241723048817846 34.414342830028374 122.63375862076691 H 0.0 **** 0.06
9761 C 136.04595095992534 132.33962094196116 64.64016225310618 C 0.0 **** -0.24
9762 H 135.64705534499745 131.33070996451983 64.73817112674504 H 0.0 **** 0.06
9763 H 135.27632192919714 133.06277829123906 64.90987034885151 H 0.0 **** 0.06
9764 H 136.3587361401854 132.5081392598925 63.6097420182889 H 0.0 **** 0.06
9765 H 136.90357208980134 132.45700143900825 65.3044270692605 H 0.0 **** 0.06
9766 C 148.51028078104412 29.603848776184776 96.40862510584516 C 0.0 **** -0.24
9767 H 148.01823771672815 29.54037346194113 95.43827241135223 H 0.0 **** 0.06
9768 H 148.77148076326674 28.601710200585444 96.74974784580752 H 0.0 **** 0.06
9769 H 147.83681318964898 30.069369908927712 97.12866632209688 H 0.0 **** 0.06
9770 H 149.4158227476918 30.204557887955076 96.31813646532005 H 0.0 **** 0.06
9771 C 58.17323078384712 84.77795039821115 127.61331783523269 C 0.0 **** -0.24
9772 H 58.60430213896434 83.92618869059879 127.08682723840843 H 0.0 **** 0.06
9773 H 58.432469675101146 84.72046861828562 128.67125353624672 H 0.0 **** 0.06
9774 H 57.08897325920982 84.76098836818647 127.50360110536238 H 0.0 **** 0.06
9775 H 58.56700461049353 85.70241155888789 127.1925524013634 H 0.0 **** 0.06
9776 C 138.50403923725838 59.88617960332704 41.72171261021268 C 0.0 **** -0.24
9777 H 137.69149615010213 60.56134539416735 41.452768840130005 H 0.0 **** 0.06
9778 H 139.2840607185066 60.44484381729444 42.238905648147636 H 0.0 **** 0.06
9779 H 138.91622729229775 59.43611613141209 40.818527281840645 H 0.0 **** 0.06
9780 H 138.12304736357422 59.10267219352164 42.37706839128249 H 0.0 **** 0.06
9781 C 76.4446131016147 122.82619523154685 6.928754156263892 C 0.0 **** -0.24
9782 H 76.71634797166418 123.69451933747825 7.529465635120459 H 0.0 **** 0.06
9783 H 76.66160145391814 123.02821240405581 5.879635485071709 H 0.0 **** 0.06
9784 H 75.38056230651013 122.62213015214138 7.047628884277827 H 0.0 **** 0.06
9785 H 77.01989513479462 121.96129544594896 7.260048313832925 H 0.0 **** 0.06
9786 C 117.97129504328475 11.689923715504818 67.64695224883124 C 0.0 **** -0.24
9787 H 117.59559896253677 11.309711830385112 68.59700079455307 H 0.0 **** 0.06
9788 H 118.9902705447002 11.334701873224333 67.4919450269819 H 0.0 **** 0.06
9789 H 117.9635572084023 12.77929986481422 67.66239747604662 H 0.0 **** 0.06
9790 H 117.33413056081446 11.333153055979068 66.83707200650507 H 0.0 **** 0.06
9791 C 91.11446659696348 76.74265707560892 59.39427484726497 C 0.0 **** -0.24
9792 H 90.51691345949722 76.86787890619534 58.49029329202921 H 0.0 **** 0.06
9793 H 92.1150930021185 76.40738731241773 59.123603822805705 H 0.0 **** 0.06
9794 H 90.64388848924338 76.00113461534754 60.039246565089826 H 0.0 **** 0.06
9795 H 91.17949338571493 77.69418048616517 59.92133703640701 H 0.0 **** 0.06
9796 C 62.897717212398334 162.66703262364126 120.36838348043193 C 0.0 **** -0.24
9797 H 63.690067169821916 161.9822620014359 120.67144058734112 H 0.0 **** 0.06
9798 H 62.20495934443966 162.14984802395546 119.70288475923141 H 0.0 **** 0.06
9799 H 63.333350626411786 163.5194610040519 119.84641196416806 H 0.0 **** 0.06
9800 H 62.36180864205042 163.01594815094964 121.25052507060369 H 0.0 **** 0.06
9801 C 133.05604810178272 69.32774516840851 74.23756600212869 C 0.0 **** -0.24
9802 H 132.26070445763733 70.01140432537852 74.53452307310792 H 0.0 **** 0.06
9803 H 133.9710654613978 69.57960034255214 74.77315917053028 H 0.0 **** 0.06
9804 H 133.226657710994 69.4133410252698 73.16420186084167 H 0.0 **** 0.06
9805 H 132.76289448347688 68.3042700406532 74.4779689333975 H 0.0 **** 0.06
9806 C 140.32796480252225 153.6700841512901 161.3655208626228 C 0.0 **** -0.24
9807 H 139.4784739988634 154.34878200457632 161.2903979731899 H 0.0 **** 0.06
9808 H 140.09269374450497 152.73604365892953 160.85484116050634 H 0.0 **** 0.06
9809 H 140.54029614813032 153.4672809772255 162.41467342204365 H 0.0 **** 0.06
9810 H 141.20090079113987 154.12849962229492 160.90000942926764 H 0.0 **** 0.06
9811 C 112.38683550265432 143.87166487883567 65.82817142525037 C 0.0 **** -0.24
9812 H 113.08162223604268 143.10038888493028 66.15987999894887 H 0.0 **** 0.06
9813 H 112.94268653036931 144.77198459447854 65.56334894122668 H 0.0 **** 0.06
9814 H 111.68667844214747 144.09980874432554 66.63139387455053 H 0.0 **** 0.06
9815 H 111.83654086321508 143.51530041689756 64.95692802665218 H 0.0 **** 0.06
9816 C 6.1740234263256895 74.230000663739 132.22540687707323 C 0.0 **** -0.24
9817 H 6.402082276080648 75.29446494005511 132.26916517270757 H 0.0 **** 0.06
9818 H 5.094582948390254 74.09172453388565 132.1746054408951 H 0.0 **** 0.06
9819 H 6.562759864304006 73.73789609251065 133.1172605345123 H 0.0 **** 0.06
9820 H 6.638622405558671 73.79553184917808 131.339579281034 H 0.0 **** 0.06
9821 C 13.94901867806874 44.11538681225335 139.33314279597312 C 0.0 **** -0.24
9822 H 13.488821462687696 43.16024980631221 139.58495355800068 H 0.0 **** 0.06
9823 H 14.456295465531 44.03231245491662 138.3722188900453 H 0.0 **** 0.06
9824 H 14.671891266933557 44.38369154802331 140.10392724132498 H 0.0 **** 0.06
9825 H 13.178804144271865 44.88501833736177 139.2731613376202 H 0.0 **** 0.06
9826 C 120.61212659433136 145.53782033667838 93.94229858111046 C 0.0 **** -0.24
9827 H 119.67496801540693 145.019303044395 94.14708749807795 H 0.0 **** 0.06
9828 H 120.42774036323672 146.61060610004955 93.88199690848734 H 0.0 **** 0.06
9829 H 121.02224548011444 145.18610752425934 92.99571078922273 H 0.0 **** 0.06
9830 H 121.32223629377904 145.33525295666195 94.74327329320576 H 0.0 **** 0.06
9831 C 10.582584319464189 35.659757816564095 152.37950201255418 C 0.0 **** -0.24
9832 H 9.56599890065445 36.02359893457424 152.5274701561104 H 0.0 **** 0.06
9833 H 10.626236883686119 34.59624751969338 152.61144622442933 H 0.0 **** 0.06
9834 H 11.261707654970479 36.20373449247643 153.03693319856805 H 0.0 **** 0.06
9835 H 10.877219643574563 35.81866243953074 151.34218422031725 H 0.0 **** 0.06
9836 C 26.322125483164776 129.42649692522645 97.5931701234199 C 0.0 **** -0.24
9837 H 26.902219143645134 130.11918899935844 96.98437142339776 H 0.0 **** 0.06
9838 H 26.179231478512826 128.49403382126474 97.04510919184025 H 0.0 **** 0.06
9839 H 25.35125119555361 129.86588879097948 97.82006157960598 H 0.0 **** 0.06
9840 H 26.855563742865577 129.22346442097015 98.52162005315517 H 0.0 **** 0.06
9841 C 14.0806698622971 15.198675671819288 127.57198885777777 C 0.0 **** -0.24
9842 H 13.544392646851747 15.7222699494747 126.78101122534403 H 0.0 **** 0.06
9843 H 14.937449088736798 14.676806692205822 127.14555599551753 H 0.0 **** 0.06
9844 H 13.415230600449377 14.478714857893934 128.04681074653467 H 0.0 **** 0.06
9845 H 14.425987378227916 15.918733894135983 128.31384721687326 H 0.0 **** 0.06
9846 C 112.30771593079024 28.258348215762112 91.23846637211841 C 0.0 **** -0.24
9847 H 112.51816940036528 27.345249943212963 91.79469718526083 H 0.0 **** 0.06
9848 H 111.31407786667822 28.622713552316412 91.4998973662865 H 0.0 **** 0.06
9849 H 112.34946960935477 28.048986417312705 90.16934002840809 H 0.0 **** 0.06
9850 H 113.05136135767336 29.015530300680467 91.48941788478623 H 0.0 **** 0.06
9851 C 18.519488760084876 12.485117768058721 59.81521308762882 C 0.0 **** -0.24
9852 H 17.925000447279196 13.25145916459963 59.31691760028832 H 0.0 **** 0.06
9853 H 19.21191783962564 12.04186804194805 59.09938942711699 H 0.0 **** 0.06
9854 H 17.85909598994582 11.7115708142273 60.207794761572416 H 0.0 **** 0.06
9855 H 19.080317972542247 12.935180181413962 60.6335548464358 H 0.0 **** 0.06
9856 C 145.1611752082257 54.53425775503541 13.261618047381972 C 0.0 **** -0.24
9857 H 145.96864485463067 55.21187345916326 13.54151200243507 H 0.0 **** 0.06
9858 H 144.59572869128021 54.96468374786605 12.435660705925699 H 0.0 **** 0.06
9859 H 144.50060431363397 54.3833581934698 14.115948369147532 H 0.0 **** 0.06
9860 H 145.58175282585495 53.57639126775496 12.954515240132395 H 0.0 **** 0.06
9861 C 81.61129246714607 64.75541860954252 87.53714937129081 C 0.0 **** -0.24
9862 H 81.6253588099725 64.20550477599232 86.59588703594875 H 0.0 **** 0.06
9863 H 82.45262895909262 65.44770295293324 87.56562998750297 H 0.0 **** 0.06
9864 H 81.68922769615514 64.05357250300682 88.36779671816214 H 0.0 **** 0.06
9865 H 80.67754191338446 65.31219021851365 87.61805143919338 H 0.0 **** 0.06
9866 C 126.4972751190918 32.17641251495621 140.8733035452828 C 0.0 **** -0.24
9867 H 127.09764211972217 31.466504575029546 141.4418279713505 H 0.0 **** 0.06
9868 H 127.01990391707528 32.43721559110469 139.95162310830548 H 0.0 **** 0.06
9869 H 126.33784947511054 33.075738926831036 141.46715646271306 H 0.0 **** 0.06
9870 H 125.53518046794693 31.724931781606557 140.62973649867547 H 0.0 **** 0.06
9871 C 115.0712041324025 15.25530226905633 128.84630455918716 C 0.0 **** -0.24
9872 H 114.3872936299322 15.758922065641599 129.53052924749773 H 0.0 **** 0.06
9873 H 115.96094667010385 14.938240195422253 129.3896568324316 H 0.0 **** 0.06
9874 H 115.35650742215935 15.942502842911068 128.04952273699345 H 0.0 **** 0.06
9875 H 114.577399206568 14.384622449584754 128.41613927828826 H 0.0 **** 0.06
9876 C 149.65163981832742 96.6270078262078 161.19659420980742 C 0.0 **** -0.24
9877 H 150.54074921012443 96.36823062520862 160.6209991035449 H 0.0 **** 0.06
9878 H 149.930258411551 97.28561668846174 162.01906542173748 H 0.0 **** 0.06
9879 H 149.19920682424973 95.71907523221336 161.59523520368978 H 0.0 **** 0.06
9880 H 148.93577588341358 97.13498500342041 160.54978829386715 H 0.0 **** 0.06
9881 C 150.0236378652321 7.172678900876889 72.2345912356373 C 0.0 **** -0.24
9882 H 149.6780457271756 6.449294912964973 72.9739575688203 H 0.0 **** 0.06
9883 H 149.80653300018147 6.799446930167562 71.23320306759248 H 0.0 **** 0.06
9884 H 151.09827079109596 7.317836583037547 72.3443872903556 H 0.0 **** 0.06
9885 H 149.51067531930676 8.12198762350181 72.38864067550745 H 0.0 **** 0.06
9886 C 44.552050603065 56.444305608786266 99.81850811039178 C 0.0 **** -0.24
9887 H 45.180426367033235 56.89786895974834 100.58396679220357 H 0.0 **** 0.06
9888 H 43.837407170739894 57.18195828630634 99.45169727772364 H 0.0 **** 0.06
9889 H 44.01356532839465 55.597722193163506 100.2452305086465 H 0.0 **** 0.06
9890 H 45.17539547252703 56.099804857118116 98.99313651343633 H 0.0 **** 0.06
9891 C 50.8164186036081 102.35242107753061 91.01368766422553 C 0.0 **** -0.24
9892 H 50.410374306476385 101.57180868676352 90.3691969931255 H 0.0 **** 0.06
9893 H 50.01404962079194 102.78160281147609 91.61383090751137 H 0.0 **** 0.06
9894 H 51.26852134633273 103.13077695018285 90.40023264961616 H 0.0 **** 0.06
9895 H 51.57204735186366 101.92275081762921 91.67150186654385 H 0.0 **** 0.06
9896 C 96.31280350389191 28.766669017982956 17.286216555809744 C 0.0 **** -0.24
9897 H 96.23045221515068 29.61303108105455 17.96913193932579 H 0.0 **** 0.06
9898 H 96.8880828033088 29.06400128495435 16.408647100896644 H 0.0 **** 0.06
9899 H 95.3171737394009 28.45053497765017 16.978185005200316 H 0.0 **** 0.06
9900 H 96.81726009040707 27.94222686464451 17.789996805735683 H 0.0 **** 0.06
9901 C 57.5733859480864 86.61872939163337 43.70041537097279 C 0.0 **** -0.24
9902 H 57.7650294413008 87.03345715428213 44.69011204876699 H 0.0 **** 0.06
9903 H 57.88231852715418 87.3372994881265 42.940841442366604 H 0.0 **** 0.06
9904 H 56.509184538399566 86.41111874849943 43.592679535803654 H 0.0 **** 0.06
9905 H 58.138579348881464 85.69463230439965 43.578141676146004 H 0.0 **** 0.06
9906 C 7.126297833085289 118.27134971180789 56.028399562678544 C 0.0 **** -0.24
9907 H 6.36237514477358 118.83170184374148 56.56836298878632 H 0.0 **** 0.06
9908 H 8.042174938019116 118.86139467243649 55.97835987020609 H 0.0 **** 0.06
9909 H 6.7743293245817995 118.05987031494641 55.01835574654592 H 0.0 **** 0.06
9910 H 7.324869494877049 117.3350093950605 56.54799354177344 H 0.0 **** 0.06
9911 C 128.88243495992438 161.268373751758 92.90071734862562 C 0.0 **** -0.24
9912 H 128.32149880335157 161.84387244442814 93.63650040932656 H 0.0 **** 0.06
9913 H 129.11094626117278 161.9006303415887 92.04224482662138 H 0.0 **** 0.06
9914 H 128.2861205791328 160.41543219838687 92.57624742688832 H 0.0 **** 0.06
9915 H 129.8106076774539 160.91410753531335 93.34849261861251 H 0.0 **** 0.06
9916 C 58.035029883744215 31.746829131905592 86.3340003297003 C 0.0 **** -0.24
9917 H 58.25423285374741 31.073010725475882 85.50568838881631 H 0.0 **** 0.06
9918 H 57.9354377083867 31.169647414609635 87.25421365957544 H 0.0 **** 0.06
9919 H 57.10356887446913 32.27608864737267 86.13440174884045 H 0.0 **** 0.06
9920 H 58.84583137040069 32.46638408704814 86.44204862152 H 0.0 **** 0.06
9921 C 122.7358044030752 107.90209932417716 11.721932599433416 C 0.0 **** -0.24
9922 H 123.18261854196763 107.42352216026765 10.850284224300935 H 0.0 **** 0.06
9923 H 123.04803196439235 107.37546387734048 12.624969131642558 H 0.0 **** 0.06
9924 H 121.64982637813037 107.86696449929903 11.637943818740837 H 0.0 **** 0.06
9925 H 123.06342361843534 108.9400962775137 11.77443796292934 H 0.0 **** 0.06
9926 C 72.39546044652083 54.350647780431615 2.939751505894293 C 0.0 **** -0.24
9927 H 72.49893223025099 53.267714325010076 2.8690861866074613 H 0.0 **** 0.06
9928 H 73.36781160494837 54.819032944807105 2.7874970599398807 H 0.0 **** 0.06
9929 H 72.01503564897352 54.614566772499984 3.927251196067232 H 0.0 **** 0.06
9930 H 71.69901794771944 54.70018884996371 2.1771016747626106 H 0.0 **** 0.06
9931 C 149.0254816408302 161.6152735594588 152.1629777974128 C 0.0 **** -0.24
9932 H 149.92015727064006 162.23552867044182 152.11377459703192 H 0.0 **** 0.06
9933 H 148.7133856311656 161.34678399037023 151.1532514403298 H 0.0 **** 0.06
9934 H 148.2260350971769 162.16952927360398 152.6556193613102 H 0.0 **** 0.06
9935 H 149.2423485643383 160.70925230341916 152.72926579097935 H 0.0 **** 0.06
9936 C 26.973759992469013 137.98517992321152 46.381804802210624 C 0.0 **** -0.24
9937 H 27.391598754326367 137.29580712809317 47.11636713019405 H 0.0 **** 0.06
9938 H 25.957831347097567 137.67718040772272 46.13233100525055 H 0.0 **** 0.06
9939 H 27.58836645059867 137.97333092009566 45.4820435344118 H 0.0 **** 0.06
9940 H 26.956949066827917 138.99256031126757 46.79771224585902 H 0.0 **** 0.06
9941 C 117.06798358444502 142.3403947036454 66.19785744220475 C 0.0 **** -0.24
9942 H 116.6411754607035 141.9557919651045 67.12390517382627 H 0.0 **** 0.06
9943 H 116.29475459549607 142.37947282599114 65.43025682823675 H 0.0 **** 0.06
9944 H 117.87362138502144 141.68508905370769 65.86890295797409 H 0.0 **** 0.06
9945 H 117.46040504669699 143.34264633609538 66.36810402382206 H 0.0 **** 0.06
9946 C 45.8623343505098 128.5532667165197 19.351330428990295 C 0.0 **** -0.24
9947 H 46.426792104789286 129.42849498926168 19.02967258267728 H 0.0 **** 0.06
9948 H 46.548016096321746 127.80157018936904 19.74190784775137 H 0.0 **** 0.06
9949 H 45.315236325663676 128.141544520436 18.503076075416246 H 0.0 **** 0.06
9950 H 45.15769519903107 128.8435736064094 20.131649261116138 H 0.0 **** 0.06
9951 C 79.37353383793646 86.9925901842409 144.17641769528086 C 0.0 **** -0.24
9952 H 79.91952578000672 86.35309592297119 144.8701818864537 H 0.0 **** 0.06
9953 H 78.31708835314967 86.72575416881469 144.1927369364672 H 0.0 **** 0.06
9954 H 79.76815089960843 86.85433324630438 143.16996886904107 H 0.0 **** 0.06
9955 H 79.49175587655668 88.03450259677635 144.4731767147918 H 0.0 **** 0.06
9956 C 106.87086424016371 76.58085380877901 108.45075686558937 C 0.0 **** -0.24
9957 H 107.15594142899715 77.28617516752644 107.66915998762306 H 0.0 **** 0.06
9958 H 105.96383374415441 76.93300074866622 108.94346480069112 H 0.0 **** 0.06
9959 H 107.67561658980154 76.50333634029766 109.18141583905253 H 0.0 **** 0.06
9960 H 106.6872313113648 75.60303480572261 108.00638677557515 H 0.0 **** 0.06
9961 C 12.84333354330505 30.75453237092114 80.06450590345776 C 0.0 **** -0.24
9962 H 12.233873800576987 30.18991139977456 79.36000126156637 H 0.0 **** 0.06
9963 H 13.045352568255964 31.745523885469936 79.65713014380867 H 0.0 **** 0.06
9964 H 13.785657656745059 30.231045038181264 80.23033767424516 H 0.0 **** 0.06
9965 H 12.310165944321398 30.851820391331387 81.0103907898503 H 0.0 **** 0.06
9966 C 137.51936058541386 110.04260423450657 33.897477750269786 C 0.0 **** -0.24
9967 H 137.6915680815635 110.20457617404352 34.961471416170525 H 0.0 **** 0.06
9968 H 136.58157894079793 109.50321782538464 33.760675797429826 H 0.0 **** 0.06
9969 H 138.3393579193242 109.45804254104439 33.48209742940401 H 0.0 **** 0.06
9970 H 137.46329027872312 111.00445252110205 33.38817053674899 H 0.0 **** 0.06
9971 C 53.74876209617952 128.81699603851234 41.83350621038613 C 0.0 **** -0.24
9972 H 54.248345643340016 128.767343775969 42.800160615473715 H 0.0 **** 0.06
9973 H 53.59389596320395 127.80692491245352 41.452883448050954 H 0.0 **** 0.06
9974 H 54.36598715547571 129.37958980732304 41.13313036097185 H 0.0 **** 0.06
9975 H 52.78443127848753 129.31359955806911 41.94771181129829 H 0.0 **** 0.06
9976 C 55.98338284051442 120.64049280900898 47.34918817201924 C 0.0 **** -0.24
9977 H 56.46751489941451 121.53318787313978 46.95093626433771 H 0.0 **** 0.06
9978 H 56.4542884355989 119.75297409633254 46.92431599467784 H 0.0 **** 0.06
9979 H 54.925708067257105 120.65213135136074 47.08548667083022 H 0.0 **** 0.06
9980 H 56.087664491376856 120.62442504555338 48.43361843284379 H 0.0 **** 0.06
9981 C 89.1518276711912 19.396796466879522 33.681233127282326 C 0.0 **** -0.24
9982 H 89.2849857026561 19.719327962285547 34.71412384981255 H 0.0 **** 0.06
9983 H 88.93875264099644 18.32751031472131 33.658938565418 H 0.0 **** 0.06
9984 H 90.06411466201853 19.59809663565585 33.11844667839537 H 0.0 **** 0.06
9985 H 88.32180968133065 19.942858716388287 33.23373788724672 H 0.0 **** 0.06
9986 C 85.24662347018047 49.8523144652024 6.043932090414451 C 0.0 **** -0.24
9987 H 85.73332965595444 49.89333470552654 7.018557811061029 H 0.0 **** 0.06
9988 H 84.29159922511532 49.33561751760617 6.136445854857932 H 0.0 **** 0.06
9989 H 85.8847042710912 49.31457527221245 5.342160526004534 H 0.0 **** 0.06
9990 H 85.07916424732737 50.86489733166211 5.678558082308967 H 0.0 **** 0.06
9991 C 74.46633853556011 67.71198953186239 135.8336396638453 C 0.0 **** -0.24
9992 H 74.12481395625784 67.75866500515039 134.799253257286 H 0.0 **** 0.06
9993 H 73.6762427087522 68.072639582738 136.49323804167392 H 0.0 **** 0.06
9994 H 75.35261700511586 68.33583332243771 135.95127582981405 H 0.0 **** 0.06
9995 H 74.71066282020331 66.68142928890455 136.08822371477729 H 0.0 **** 0.06
9996 C 51.83687351606562 7.528717937270471 91.70500595961724 C 0.0 **** -0.24
9997 H 52.37651094352695 7.544054183106084 90.7579721118414 H 0.0 **** 0.06
9998 H 52.47281172128504 7.931726419684708 92.49318336146547 H 0.0 **** 0.06
9999 H 51.56070509140885 6.502788480262495 91.94891088379384 H 0.0 **** 0.06
10000 H 50.93533220108286 8.135910412978603 91.61941722593463 H 0.0 **** 0.06
10001 C 27.936239284302076 91.46654623879066 65.23315128909945 C 0.0 **** -0.24
10002 H 26.927439557331184 91.28619886077895 65.60576344453068 H 0.0 **** 0.06
10003 H 28.211005478281265 90.67764031448664 64.53422083121325 H 0.0 **** 0.06
10004 H 28.636596795129577 91.47287413021151 66.06918072188569 H 0.0 **** 0.06
10005 H 27.967896905712195 92.43082609841966 64.72519850988283 H 0.0 **** 0.06
10006 C 143.8031269202818 91.77058384543321 95.44018818931197 C 0.0 **** -0.24
10007 H 144.12142912485703 92.40992720767271 94.61638563621813 H 0.0 **** 0.06
10008 H 142.79976323194722 91.39504647158967 95.2408221241682 H 0.0 **** 0.06
10009 H 143.79990285978775 92.3456400980467 96.36576084773664 H 0.0 **** 0.06
10010 H 144.49330347680385 90.9320831705084 95.53571205260019 H 0.0 **** 0.06
10011 C 28.14238295438996 35.59767524932475 12.968948135027318 C 0.0 **** -0.24
10012 H 28.181523660666706 34.85160097519912 12.174784385398816 H 0.0 **** 0.06
10013 H 28.18400289729675 35.09967718005693 13.937500947741832 H 0.0 **** 0.06
10014 H 27.213870444682527 36.163316413818166 12.889642041410674 H 0.0 **** 0.06
10015 H 28.990757302646635 36.275215375696334 12.87191101988411 H 0.0 **** 0.06
10016 C 102.84802732242514 49.01199456556073 159.81904380697054 C 0.0 **** -0.24
10017 H 102.02239223630073 49.69579984980065 160.01919857362446 H 0.0 **** 0.06
10018 H 102.56747559656617 48.004664190645556 160.12604395003518 H 0.0 **** 0.06
10019 H 103.7273797838601 49.33216960510221 160.3770366556307 H 0.0 **** 0.06
10020 H 103.07222975857957 49.01802045180597 158.75218916659827 H 0.0 **** 0.06
10021 C 83.68625515184146 56.32194562412019 70.33369050132659 C 0.0 **** -0.24
10022 H 84.74965882565294 56.534351028064606 70.22363858003992 H 0.0 **** 0.06
10023 H 83.2600066921421 56.09230436805461 69.35633076873864 H 0.0 **** 0.06
10024 H 83.182591261465 57.19213673105935 70.75490301979443 H 0.0 **** 0.06
10025 H 83.55298102240903 55.467623147714534 70.99742310613239 H 0.0 **** 0.06
10026 C 79.12282261928635 110.25060742602997 93.23716041418811 C 0.0 **** -0.24
10027 H 78.06104592492306 110.13113874534523 93.01923755477196 H 0.0 **** 0.06
10028 H 79.37090028333728 111.31134889520854 93.2601568958184 H 0.0 **** 0.06
10029 H 79.70986052552757 109.75656914561355 92.4639091711644 H 0.0 **** 0.06
10030 H 79.34652790904252 109.80388556697864 94.20531553836895 H 0.0 **** 0.06
10031 C 10.188573185890334 128.3897733520128 51.93319488185551 C 0.0 **** -0.24
10032 H 9.66946605451352 129.11714313914896 51.3091421347569 H 0.0 **** 0.06
10033 H 10.631445578128194 127.61999379307639 51.30060943020365 H 0.0 **** 0.06
10034 H 9.480720905507894 127.93125429706197 52.62302475426796 H 0.0 **** 0.06
10035 H 10.974538399266407 128.89148478461357 52.499075810312874 H 0.0 **** 0.06
10036 C 37.87535201945383 118.15365166814757 9.64920001778654 C 0.0 **** -0.24
10037 H 38.14828917160071 117.76483047657996 8.668565414943657 H 0.0 **** 0.06
10038 H 38.59904786088572 117.8111006908128 10.389056100983765 H 0.0 **** 0.06
10039 H 36.88212653883767 117.7956180320781 9.9186529663491 H 0.0 **** 0.06
10040 H 37.87356303715842 119.24344271871789 9.619031569054414 H 0.0 **** 0.06
10041 C 24.82620391953654 62.1919690222345 125.63850664181311 C 0.0 **** -0.24
10042 H 25.74984185231608 61.66700657461729 125.88470430621521 H 0.0 **** 0.06
10043 H 24.210928138928978 61.56215531369202 124.99586267676011 H 0.0 **** 0.06
10044 H 25.065042047029095 63.120265206817635 125.11804584081821 H 0.0 **** 0.06
10045 H 24.28220285185222 62.41929533807976 126.55519221227826 H 0.0 **** 0.06
10046 C 78.68955574791141 10.9076033603938 115.62456247335263 C 0.0 **** -0.24
10047 H 78.38299333773057 11.928019566134033 115.85221809064905 H 0.0 **** 0.06
10048 H 79.46937546059777 10.924605220847994 114.86272979531904 H 0.0 **** 0.06
10049 H 77.83307840131783 10.344525784159025 115.25543374714877 H 0.0 **** 0.06
10050 H 79.07468661788988 10.433714181008902 116.52748723024078 H 0.0 **** 0.06
10051 C 147.81708940272054 5.604934766096449 86.91783830223476 C 0.0 **** -0.24
10052 H 148.4562899998917 4.745694971955402 86.71215295739437 H 0.0 **** 0.06
10053 H 147.10848993697587 5.7349133936018575 86.10001607120928 H 0.0 **** 0.06
10054 H 148.43201654903748 6.499985454107673 87.01152781236345 H 0.0 **** 0.06
10055 H 147.27354174333576 5.439379162626864 87.84866759704138 H 0.0 **** 0.06
10056 C 83.85607668803499 8.144527812918255 38.420707190356836 C 0.0 **** -0.24
10057 H 83.04746758348836 7.44270996503672 38.626223360994004 H 0.0 **** 0.06
10058 H 84.58357778429212 8.108728489621292 39.23236811490966 H 0.0 **** 0.06
10059 H 83.4495290045366 9.152884978296385 38.34135561937188 H 0.0 **** 0.06
10060 H 84.34326665993393 7.874291057602328 37.48360959869774 H 0.0 **** 0.06
10061 C 53.09007354327204 76.57872552062861 52.28141017185246 C 0.0 **** -0.24
10062 H 52.47154335523497 75.71788207075954 52.02900416121537 H 0.0 **** 0.06
10063 H 52.46550068429252 77.47184149024537 52.33571986580655 H 0.0 **** 0.06
10064 H 53.852467773631375 76.71497560069608 51.51579489971361 H 0.0 **** 0.06
10065 H 53.5689159455256 76.41124006169747 53.24578582916453 H 0.0 **** 0.06
10066 C 39.95086867317633 99.60021649014791 151.5903136155584 C 0.0 **** -0.24
10067 H 39.86233732582045 99.09207225469416 152.5512764319772 H 0.0 **** 0.06
10068 H 40.27028702970313 100.62936590884155 151.75237602163992 H 0.0 **** 0.06
10069 H 38.983765443738605 99.59434127087482 151.08736561955934 H 0.0 **** 0.06
10070 H 40.68505003222435 99.08370155960245 150.97245934640654 H 0.0 **** 0.06
10071 C 52.26036760772166 68.29562575358288 130.17790879755606 C 0.0 **** -0.24
10072 H 51.79796581969106 67.93809977492579 129.2575606925524 H 0.0 **** 0.06
10073 H 52.530779754422554 69.34568562197155 130.06427158307432 H 0.0 **** 0.06
10074 H 53.1557510077256 67.70997815164338 130.38612817145895 H 0.0 **** 0.06
10075 H 51.55600029150264 68.18908864750703 131.00271021309905 H 0.0 **** 0.06
10076 C 65.22109891413481 121.25618669617748 144.93972144537497 C 0.0 **** -0.24
10077 H 65.98010085984859 120.49558092643724 144.7621497527128 H 0.0 **** 0.06
10078 H 64.38196740672294 121.09716194453361 144.26142995934168 H 0.0 **** 0.06
10079 H 65.64834732253085 122.243918325078 144.76285730839118 H 0.0 **** 0.06
10080 H 64.87396578802458 121.19014930193262 145.9700526839619 H 0.0 **** 0.06
10081 C 133.50874176524735 36.62458183946774 15.267191846252729 C 0.0 **** -0.24
10082 H 134.17990228305484 35.813999139834564 14.981256298903645 H 0.0 **** 0.06
10083 H 134.05261639299695 37.351709483645465 15.869194835155497 H 0.0 **** 0.06
10084 H 132.67860671708578 36.21984189899952 15.846263727075979 H 0.0 **** 0.06
10085 H 133.12307309875445 37.10927150247552 14.370022140721915 H 0.0 **** 0.06
10086 C 142.4887598499455 122.66970964568577 26.63896551205619 C 0.0 **** -0.24
10087 H 141.55032435391348 122.97889639750738 27.099172233599717 H 0.0 **** 0.06
10088 H 142.6344676473482 123.21676871228343 25.70666270752099 H 0.0 **** 0.06
10089 H 142.45548036571057 121.59971748981712 26.431412753964878 H 0.0 **** 0.06
10090 H 143.31408659210592 122.88222811293303 27.318442901758857 H 0.0 **** 0.06
10091 C 83.3565187342528 139.75546893304448 150.19970352677598 C 0.0 **** -0.24
10092 H 83.86944825495519 140.2980968298536 150.99360535940022 H 0.0 **** 0.06
10093 H 83.43883644547762 140.31295014685543 149.26682875599295 H 0.0 **** 0.06
10094 H 82.30425461727094 139.6385013315284 150.46226155427814 H 0.0 **** 0.06
10095 H 83.81134834397528 138.77312478646775 150.0777247627609 H 0.0 **** 0.06
10096 C 38.91619184601018 100.46492393095645 87.97138126365829 C 0.0 **** -0.24
10097 H 38.01929287353698 100.98421219831914 87.63031110325024 H 0.0 **** 0.06
10098 H 39.6830679865476 100.519796048653 87.19911778949054 H 0.0 **** 0.06
10099 H 38.67624894762446 99.42144402524042 88.17319781188459 H 0.0 **** 0.06
10100 H 39.283656625255844 100.93638667022697 88.88250823506011 H 0.0 **** 0.06
10101 C 58.798360577605635 129.6136838806137 93.25571524164525 C 0.0 **** -0.24
10102 H 57.88927425753067 130.1373106279744 93.55324167656607 H 0.0 **** 0.06
10103 H 58.60515660238289 128.54125313899652 93.2202271846786 H 0.0 **** 0.06
10104 H 59.58782169007348 129.81788627836917 93.97993166567915 H 0.0 **** 0.06
10105 H 59.11015001224618 129.96003183416045 92.27039280850698 H 0.0 **** 0.06
10106 C 157.70451287107392 155.06203650010326 26.018132629201773 C 0.0 **** -0.24
10107 H 158.489159022344 155.1557803648848 25.267740502223603 H 0.0 **** 0.06
10108 H 157.66677134303487 155.97152763112368 26.619572054859646 H 0.0 **** 0.06
10109 H 157.91797442495465 154.2090201976767 26.66252864034709 H 0.0 **** 0.06
10110 H 156.74470940085263 154.91246743824928 25.52419312467748 H 0.0 **** 0.06
10111 C 16.48420133688839 88.16378779622622 14.98766587630854 C 0.0 **** -0.24
10112 H 16.615793527007767 87.61965395825801 14.052157067129542 H 0.0 **** 0.06
10113 H 15.833358210372204 87.59273124331223 15.650136636465817 H 0.0 **** 0.06
10114 H 16.031923261253155 89.13455642950296 14.7820383176321 H 0.0 **** 0.06
10115 H 17.45367172621161 88.30756978479803 15.464245090048962 H 0.0 **** 0.06
10116 C 31.861115305045246 133.41663885607653 137.01296358602957 C 0.0 **** -0.24
10117 H 32.2790436058215 133.66214512829475 136.0379495421322 H 0.0 **** 0.06
10118 H 32.54889489349097 133.73768688622204 137.79517982986613 H 0.0 **** 0.06
10119 H 31.708747198952096 132.33974114039603 137.08295013963078 H 0.0 **** 0.06
10120 H 30.90528036891294 133.92745489195636 137.13737205226835 H 0.0 **** 0.06
10121 C 72.63008182464758 25.493842649392775 155.70714843275297 C 0.0 **** -0.24
10122 H 73.03535084499116 26.430843209414718 155.32472871789773 H 0.0 **** 0.06
10123 H 73.36814680308508 24.700571977302133 155.57918885548278 H 0.0 **** 0.06
10124 H 71.72327565758845 25.23984813840798 155.1575101479265 H 0.0 **** 0.06
10125 H 72.3952238969787 25.604152273436426 156.76537448062467 H 0.0 **** 0.06
10126 C 13.253245124654292 71.30311967840451 50.115453742607926 C 0.0 **** -0.24
10127 H 12.484446435704733 71.59543055282276 49.40164443918019 H 0.0 **** 0.06
10128 H 13.336444156955238 70.2161560900165 50.13383726778295 H 0.0 **** 0.06
10129 H 12.98411390779895 71.66337107659803 51.10806351263403 H 0.0 **** 0.06
10130 H 14.208498458057996 71.7351484714121 49.81858336276899 H 0.0 **** 0.06
10131 C 88.85474936004431 118.16650243027769 15.616182384065759 C 0.0 **** -0.24
10132 H 89.23068164489018 118.04128633288269 14.6000521045207 H 0.0 **** 0.06
10133 H 88.34185147003393 119.12469826016886 15.69667057714274 H 0.0 **** 0.06
10134 H 89.68839202508707 118.13855992379507 16.3171416899866 H 0.0 **** 0.06
10135 H 88.15923300597092 117.36048608038729 15.847031812094656 H 0.0 **** 0.06
10136 C 91.94632011971026 104.13137858404622 82.38582431275051 C 0.0 **** -0.24
10137 H 92.41637559177323 105.01544439608196 82.81867232625086 H 0.0 **** 0.06
10138 H 91.87672765848387 104.25099894114001 81.30476848287009 H 0.0 **** 0.06
10139 H 90.94704513531963 104.01079315776164 82.803957678024 H 0.0 **** 0.06
10140 H 92.54583359720542 103.25203294805257 82.61745040099754 H 0.0 **** 0.06
10141 C 31.2529818296736 152.1993604164848 150.53783599794923 C 0.0 **** -0.24
10142 H 31.347112850786147 151.11641117495913 150.61819237224665 H 0.0 **** 0.06
10143 H 32.038958656369665 152.58516130980342 149.88925066875305 H 0.0 **** 0.06
10144 H 31.346423711408548 152.64539462685343 151.5283202093231 H 0.0 **** 0.06
10145 H 30.278979215048636 152.44949549427082 150.11753943680958 H 0.0 **** 0.06
10146 C 131.26708810190178 125.68088987066199 154.2996102456573 C 0.0 **** -0.24
10147 H 131.90149966740688 125.79046197867646 153.41922350180582 H 0.0 **** 0.06
10148 H 130.67947842948024 126.58785769842288 154.4382935475075 H 0.0 **** 0.06
10149 H 131.89121138849038 125.51225183354276 155.17732329610516 H 0.0 **** 0.06
10150 H 130.5978711260974 124.83125917567418 154.1609372380425 H 0.0 **** 0.06
10151 C 151.13760275401887 4.598487990048284 84.17332379771874 C 0.0 **** -0.24
10152 H 152.196791416719 4.752482303853242 84.3820964410061 H 0.0 **** 0.06
10153 H 150.92110560576788 4.905369357023574 83.15017441436329 H 0.0 **** 0.06
10154 H 150.54121085140855 5.1929759271891385 84.86579882445697 H 0.0 **** 0.06
10155 H 150.893447451584 3.5429564200451296 84.2963976502718 H 0.0 **** 0.06
10156 C 16.75616315164438 73.59214571223322 103.77202439683853 C 0.0 **** -0.24
10157 H 16.92551894716597 74.50184570537311 104.34754709281768 H 0.0 **** 0.06
10158 H 15.85851271293295 73.0928955781352 104.13601729753438 H 0.0 **** 0.06
10159 H 17.612586472426614 72.9270404156087 103.88410876051952 H 0.0 **** 0.06
10160 H 16.63028047885885 73.84678149514048 102.7194470638915 H 0.0 **** 0.06
10161 C 147.46344848338396 31.826588340874082 71.64979599059104 C 0.0 **** -0.24
10162 H 148.15798701356587 32.56857043278495 71.25730570139923 H 0.0 **** 0.06
10163 H 146.74557914040156 32.314575322830365 72.310578275519 H 0.0 **** 0.06
10164 H 148.01528919956482 31.070693120290002 72.20848471739629 H 0.0 **** 0.06
10165 H 146.93248148888108 31.35254447494657 70.82421599836456 H 0.0 **** 0.06
10166 C 157.42327211387712 113.4762585718378 48.017876119967184 C 0.0 **** -0.24
10167 H 158.2713250951664 113.91182904282641 47.48830988287051 H 0.0 **** 0.06
10168 H 156.6956954115714 113.10671648259498 47.29594702889986 H 0.0 **** 0.06
10169 H 156.9589830148064 114.23593122337581 48.64627562212985 H 0.0 **** 0.06
10170 H 157.76909019951762 112.65135517606737 48.64038642452704 H 0.0 **** 0.06
10171 C 83.011066331184 11.272730427724525 134.92644291040793 C 0.0 **** -0.24
10172 H 83.29401939207142 10.287514205907542 135.29768330490828 H 0.0 **** 0.06
10173 H 82.85730815002992 11.947540705447068 135.76827326994712 H 0.0 **** 0.06
10174 H 82.0880407615816 11.192349951499978 134.35147538031907 H 0.0 **** 0.06
10175 H 83.80357997902598 11.661825208922494 134.28770414866625 H 0.0 **** 0.06
10176 C 62.220856348235884 15.197517000571565 97.70104220282272 C 0.0 **** -0.24
10177 H 62.69240706264179 15.325855741108683 96.72612990778202 H 0.0 **** 0.06
10178 H 62.210431585033774 16.151609567872583 98.22803134288566 H 0.0 **** 0.06
10179 H 62.78248857735372 14.46641650164213 98.28199240349414 H 0.0 **** 0.06
10180 H 61.1974218522962 14.845087911648704 97.56495955405038 H 0.0 **** 0.06
10181 C 44.883632853999956 127.76443251890987 66.06019092911589 C 0.0 **** -0.24
10182 H 45.65116895366448 127.13229822353244 65.61315688389391 H 0.0 **** 0.06
10183 H 44.18297347341577 128.0855022915014 65.28965314390342 H 0.0 **** 0.06
10184 H 45.35307073828265 128.63883037288792 66.51276398606541 H 0.0 **** 0.06
10185 H 44.35059034994556 127.20123278194569 66.8263192515629 H 0.0 **** 0.06
10186 C 160.32075020282971 19.301913950573635 120.73022460356125 C 0.0 **** -0.24
10187 H 159.4703073623805 19.918578843809314 120.44036390640198 H 0.0 **** 0.06
10188 H 160.27318951788178 19.09713903555067 121.79951785410532 H 0.0 **** 0.06
10189 H 161.24756083292706 19.8301190087397 120.50163896843199 H 0.0 **** 0.06
10190 H 160.29270176888656 18.362419244981197 120.17834614180714 H 0.0 **** 0.06
10191 C 118.59671925459415 66.20451090578146 81.75609053041339 C 0.0 **** -0.24
10192 H 117.5289420909155 66.42336308652074 81.72522737080905 H 0.0 **** 0.06
10193 H 118.74744798844401 65.12599139453275 81.7061567937991 H 0.0 **** 0.06
10194 H 119.01945007956382 66.5878606298889 82.6842701825272 H 0.0 **** 0.06
10195 H 119.08996748287151 66.67992991424829 80.90848637931217 H 0.0 **** 0.06
10196 C 143.48220948406447 62.543936519734245 46.3350844225354 C 0.0 **** -0.24
10197 H 143.83257596371058 62.376417547733865 45.315997273286484 H 0.0 **** 0.06
10198 H 143.5180511582853 61.60517500778127 46.88939129208603 H 0.0 **** 0.06
10199 H 142.45749841503385 62.9132529219508 46.31051933277145 H 0.0 **** 0.06
10200 H 144.12290827174593 63.27877600297404 46.82313961484218 H 0.0 **** 0.06
10201 C 99.1500204945113 111.56858908078544 89.93714532779029 C 0.0 **** -0.24
10202 H 99.99750496733552 111.79001038418323 89.28948840563021 H 0.0 **** 0.06
10203 H 98.22649904217522 111.86977533464824 89.44253454366537 H 0.0 **** 0.06
10204 H 99.25586411247087 112.11602912105576 90.87458249071278 H 0.0 **** 0.06
10205 H 99.12038421821981 110.49825692072281 90.1433506661416 H 0.0 **** 0.06
10206 C 136.2930579318485 82.34556800750677 127.81229806868237 C 0.0 **** -0.24
10207 H 136.48225319710852 83.1856926020146 128.48071760899097 H 0.0 **** 0.06
10208 H 137.04944252466248 82.32866894477046 127.02703973319115 H 0.0 **** 0.06
10209 H 135.30580879304975 82.45276834427222 127.3642969034014 H 0.0 **** 0.06
10210 H 136.3360537011442 81.41486710272954 128.37891705529455 H 0.0 **** 0.06
10211 C 59.978385896623024 33.64846991656901 47.50847388785979 C 0.0 **** -0.24
10212 H 59.72549432924416 34.306702682240484 46.67766926708691 H 0.0 **** 0.06
10213 H 59.12600778418245 33.571645451155234 48.18327489700317 H 0.0 **** 0.06
10214 H 60.833400942815956 34.05816633992151 48.04793938480299 H 0.0 **** 0.06
10215 H 60.23032738028766 32.65989702680275 47.12587493715347 H 0.0 **** 0.06
10216 C 35.268040952683975 85.57247055317085 18.45389110455619 C 0.0 **** -0.24
10217 H 35.57974041260309 86.50810576484203 17.98921587919358 H 0.0 **** 0.06
10218 H 36.14385695050885 85.04566051920108 18.83305121492495 H 0.0 **** 0.06
10219 H 34.76278955278417 84.95104838929876 17.713612498935362 H 0.0 **** 0.06
10220 H 34.58604707282069 85.78434183096152 19.276786442375766 H 0.0 **** 0.06
10221 C 40.54601611467824 124.92918742359677 105.01859887026208 C 0.0 **** -0.24
10222 H 41.08574129148805 125.7956767470767 104.63617260363421 H 0.0 **** 0.06
10223 H 41.104091434259544 124.02201552658522 104.784573283438 H 0.0 **** 0.06
10224 H 39.56212439666227 124.88064037798688 104.5530249244485 H 0.0 **** 0.06
10225 H 40.43414639889393 125.01908223348772 106.098780764308 H 0.0 **** 0.06
10226 C 17.163120109952473 34.527573322285164 104.46238460957989 C 0.0 **** -0.24
10227 H 18.027351509071252 35.18687113507933 104.37408751524674 H 0.0 **** 0.06
10228 H 17.42283903138707 33.53796889121085 104.08509156896241 H 0.0 **** 0.06
10229 H 16.337006336211488 34.933723171956316 103.87972849112668 H 0.0 **** 0.06
10230 H 16.868278903077425 34.45275599450528 105.50863690135895 H 0.0 **** 0.06
10231 C 33.426654203586054 145.9487816927773 130.5286074112551 C 0.0 **** -0.24
10232 H 34.29600799332444 146.4352485573662 130.96992793683486 H 0.0 **** 0.06
10233 H 32.61725193137835 145.91868377095568 131.25832786845916 H 0.0 **** 0.06
10234 H 33.68860785717442 144.93139620887044 130.23490693071682 H 0.0 **** 0.06
10235 H 33.103102256364124 146.50756414551182 129.65012794057802 H 0.0 **** 0.06
10236 C 127.15282865220954 69.2323032967898 89.77122254691088 C 0.0 **** -0.24
10237 H 127.45583329245463 70.27939928621127 89.77141345766708 H 0.0 **** 0.06
10238 H 127.60063098595901 68.72576740603694 88.9153140442421 H 0.0 **** 0.06
10239 H 126.06668293531592 69.16879173776063 89.70287323105357 H 0.0 **** 0.06
10240 H 127.48810791292607 68.75585331427975 90.6915964052967 H 0.0 **** 0.06
10241 C 85.22273175818688 148.81771013392898 158.56478081758954 C 0.0 **** -0.24
10242 H 84.79079529287 148.34239199501647 159.44499067178245 H 0.0 **** 0.06
10243 H 85.44107951401877 148.06017897109746 157.8124466938928 H 0.0 **** 0.06
10244 H 86.14430149337191 149.32857478410926 158.8437402913196 H 0.0 **** 0.06
10245 H 84.51596727029636 149.5414333795515 158.15865093411094 H 0.0 **** 0.06
10246 C 17.195926773189 119.35808616497263 144.53156670130738 C 0.0 **** -0.24
10247 H 17.961031968821857 120.0420130259719 144.89752832931066 H 0.0 **** 0.06
10248 H 16.298241308675927 119.92120386044576 144.27536924208871 H 0.0 **** 0.06
10249 H 16.960114871219503 118.62862515999933 145.30689648133415 H 0.0 **** 0.06
10250 H 17.565976568904574 118.83956776531338 143.64708794307 H 0.0 **** 0.06
10251 C 27.046664431155108 148.26902549464978 69.87433872474391 C 0.0 **** -0.24
10252 H 26.1987918688547 148.39723231528626 69.200278614054 H 0.0 **** 0.06
10253 H 27.976100468569825 148.3594674351299 69.3098399720779 H 0.0 **** 0.06
10254 H 26.996948257765553 147.28317954527137 70.33708048201991 H 0.0 **** 0.06
10255 H 27.014440868053754 149.03564580375058 70.64802844070667 H 0.0 **** 0.06
10256 C 97.40947001571203 1.0998366449008472 84.53136235270935 C 0.0 **** -0.24
10257 H 97.12243885516722 1.923130701687569 85.18611260193234 H 0.0 **** 0.06
10258 H 98.42692428872351 1.2590809169577142 84.17415943841922 H 0.0 **** 0.06
10259 H 96.7274814895469 1.0561801386374157 83.68341804273138 H 0.0 **** 0.06
10260 H 97.36139276319807 0.1629579053994803 85.08574186141351 H 0.0 **** 0.06
10261 C 86.68162935059355 89.49638587261279 112.81025909577335 C 0.0 **** -0.24
10262 H 86.50848768006031 89.30203544618021 113.86832653410912 H 0.0 **** 0.06
10263 H 87.68345924993176 89.90568971675805 112.67493683522142 H 0.0 **** 0.06
10264 H 85.94464675549197 90.21313314727055 112.44802870768805 H 0.0 **** 0.06
10265 H 86.5901150120764 88.566676008917 112.24973298971861 H 0.0 **** 0.06
10266 C 30.69228334681818 62.18868477473586 149.00364451432426 C 0.0 **** -0.24
10267 H 30.344647639251136 63.21638331788296 149.10550693957356 H 0.0 **** 0.06
10268 H 29.992979308293656 61.51747122795166 149.50236798234712 H 0.0 **** 0.06
10269 H 31.677978610175238 62.09312061236295 149.46053644475373 H 0.0 **** 0.06
10270 H 30.755959930301415 61.92989955270798 147.9468908311316 H 0.0 **** 0.06
10271 C 147.43108345446035 111.07654839180864 47.13373712297137 C 0.0 **** -0.24
10272 H 146.9679026819855 111.7291011713341 47.87450248920412 H 0.0 **** 0.06
10273 H 148.49431121647262 111.308726606976 47.05938046679539 H 0.0 **** 0.06
10274 H 146.95614882543413 111.23181011284589 46.165171305598236 H 0.0 **** 0.06
10275 H 147.307384812046 110.03736108858539 47.43742813469723 H 0.0 **** 0.06
10276 C 148.85180744793354 74.65103488019903 123.38004450789913 C 0.0 **** -0.24
10277 H 149.0240634689965 73.81853580697168 122.69862688217887 H 0.0 **** 0.06
10278 H 148.7974471498497 74.27912711615193 124.40225161551717 H 0.0 **** 0.06
10279 H 147.9139604211979 75.14311108481627 123.12153951406816 H 0.0 **** 0.06
10280 H 149.67175057339088 75.36541386754533 123.29462879024908 H 0.0 **** 0.06
10281 C 161.98130585185126 43.492671351808326 51.740899717960545 C 0.0 **** -0.24
10282 H 161.8029986753431 43.726262892620895 52.790379297859175 H 0.0 **** 0.06
10283 H 163.00716054606738 43.754149720579335 51.479809523746425 H 0.0 **** 0.06
10284 H 161.29169071929434 44.06175063151093 51.118635663136985 H 0.0 **** 0.06
10285 H 161.82513649125679 42.426328054330895 51.57505344820116 H 0.0 **** 0.06
10286 C 99.20171735162575 133.0057314593892 115.14154260739244 C 0.0 **** -0.24
10287 H 99.05286348203444 134.05924910621405 115.37743439860606 H 0.0 **** 0.06
10288 H 99.88717866230971 132.91596244654238 114.2985496148967 H 0.0 **** 0.06
10289 H 98.24519669802837 132.5529470532805 114.88310047545838 H 0.0 **** 0.06
10290 H 99.62290277823305 132.4965012811015 116.0082584270287 H 0.0 **** 0.06
10291 C 161.31077528344733 97.93222156331296 16.05029683826183 C 0.0 **** -0.24
10292 H 162.3317321373284 97.88108560759113 15.671226806019774 H 0.0 **** 0.06
10293 H 161.30939496891523 98.42805369897465 17.021602392455577 H 0.0 **** 0.06
10294 H 160.91201751716147 96.92382133813192 16.15545410343708 H 0.0 **** 0.06
10295 H 160.69204846453783 98.49671516073116 15.352926098354146 H 0.0 **** 0.06
10296 C 135.07633263002438 127.13579870524936 63.48576842147497 C 0.0 **** -0.24
10297 H 135.4441402227695 126.13960864979637 63.731794450937414 H 0.0 **** 0.06
10298 H 134.1402687980028 127.31783825092342 64.01492151838215 H 0.0 **** 0.06
10299 H 134.90606471969562 127.20385137377835 62.4108793312474 H 0.0 **** 0.06
10300 H 135.81415956519942 127.88008270922512 63.78500509144793 H 0.0 **** 0.06
10301 C 58.275817165865476 36.294996932329965 77.01494333483964 C 0.0 **** -0.24
10302 H 57.596302349232985 35.67645625847156 76.42918153599979 H 0.0 **** 0.06
10303 H 58.5723936780754 35.75561697457832 77.9155589835324 H 0.0 **** 0.06
10304 H 57.77454183604249 37.221631667029925 77.29377115830641 H 0.0 **** 0.06
10305 H 59.160549384007425 36.523891853753426 76.42114129522392 H 0.0 **** 0.06
10306 C 96.18489171218084 113.96150199112472 102.02327132430867 C 0.0 **** -0.24
10307 H 96.15268581415302 113.95042872731014 103.11286529781333 H 0.0 **** 0.06
10308 H 97.19235057031321 114.21225429590223 101.69244242222706 H 0.0 **** 0.06
10309 H 95.48283138163731 114.70455750311652 101.64641774240687 H 0.0 **** 0.06
10310 H 95.9119246426028 112.9774036469828 101.64240352383666 H 0.0 **** 0.06
10311 C 76.0814629731575 141.48496978491585 78.92322867528722 C 0.0 **** -0.24
10312 H 75.07953853287506 141.39318966429414 78.50462544631817 H 0.0 **** 0.06
10313 H 76.52817957780849 142.42329848808274 78.5943557849289 H 0.0 **** 0.06
10314 H 76.69493706477232 140.65110303065586 78.58171346707012 H 0.0 **** 0.06
10315 H 76.02286377986255 141.47093627838422 80.01197064560749 H 0.0 **** 0.06
10316 C 154.66178263087767 81.55284141055122 19.952789085708048 C 0.0 **** -0.24
10317 H 154.77230063314846 82.6078678968167 19.702074622842446 H 0.0 **** 0.06
10318 H 154.1670948160253 81.03440357606829 19.13075984812957 H 0.0 **** 0.06
10319 H 154.06177067731448 81.45544884845592 20.857783125888517 H 0.0 **** 0.06
10320 H 155.64545253131578 81.11446843937894 20.11950892571076 H 0.0 **** 0.06
10321 C 160.94252474459353 76.35025728706883 43.37567309307214 C 0.0 **** -0.24
10322 H 160.64686390881556 76.49004844227115 42.33566108665198 H 0.0 **** 0.06
10323 H 161.87531299953753 75.78700881718636 43.41518401200929 H 0.0 **** 0.06
10324 H 160.16332888468224 75.80136181498592 43.904089988232684 H 0.0 **** 0.06
10325 H 161.08514920527463 77.32306994054983 43.84564079884042 H 0.0 **** 0.06
10326 C 134.0497945870944 34.918629979141855 90.07957290123898 C 0.0 **** -0.24
10327 H 134.49454443076104 35.62224916559545 90.7845222080998 H 0.0 **** 0.06
10328 H 134.24345624370665 33.89913060101446 90.41315203484113 H 0.0 **** 0.06
10329 H 134.48752659999553 35.068430353879066 89.09186270368502 H 0.0 **** 0.06
10330 H 132.9742618049325 35.087060503382546 90.02907303526746 H 0.0 **** 0.06
10331 C 130.32371946204222 143.49885397876733 6.844944632789748 C 0.0 **** -0.24
10332 H 130.31924554075886 144.5418715998074 6.527115894561433 H 0.0 **** 0.06
10333 H 131.13534298040244 143.3405184386013 7.556327813917221 H 0.0 **** 0.06
10334 H 130.46912362202877 142.8564223205309 5.977156055474495 H 0.0 **** 0.06
10335 H 129.3719846006247 143.25972173459257 7.3199576798947135 H 0.0 **** 0.06
10336 C 152.0775579665493 118.77728592454866 48.14627775397767 C 0.0 **** -0.24
10337 H 151.79486359632318 117.75106502566263 48.379754517664054 H 0.0 **** 0.06
10338 H 152.7231319432503 119.16546606554772 48.93448349693362 H 0.0 **** 0.06
10339 H 151.18122983114802 119.39291456801607 48.074138388935 H 0.0 **** 0.06
10340 H 152.60991094455565 118.79996478305986 47.195419809612844 H 0.0 **** 0.06
10341 C 113.09554012041144 95.66130935365574 113.53088040291658 C 0.0 **** -0.24
10342 H 112.69276400556225 96.6532874199263 113.73656897084118 H 0.0 **** 0.06
10343 H 112.54172850119195 94.91862067654876 114.10619606481444 H 0.0 **** 0.06
10344 H 114.1470010246907 95.63034050476705 113.81433712994573 H 0.0 **** 0.06
10345 H 112.99855547138816 95.44386559875997 112.46729869898826 H 0.0 **** 0.06
10346 C 139.87701736006858 136.4296125308755 57.7205527655443 C 0.0 **** -0.24
10347 H 140.31042978181762 137.42887919786844 57.75605829886122 H 0.0 **** 0.06
10348 H 140.56610055868674 135.71916558981496 58.176645223053185 H 0.0 **** 0.06
10349 H 139.69712358872664 136.14763665639376 56.683089659617494 H 0.0 **** 0.06
10350 H 138.933549104169 136.42443327785986 58.2676338584734 H 0.0 **** 0.06
10351 C 41.49639985829883 123.08992066262368 97.87482194169712 C 0.0 **** -0.24
10352 H 41.70583760933907 123.3902437239581 98.90171714440896 H 0.0 **** 0.06
10353 H 40.54617294651153 123.51972060131192 97.55778142868667 H 0.0 **** 0.06
10354 H 41.44029768145438 122.00267912725829 97.81943916752664 H 0.0 **** 0.06
10355 H 42.292797164086025 123.44641867918259 97.22266758309001 H 0.0 **** 0.06
10356 C 96.38479425723212 146.89681614210235 152.45757693459987 C 0.0 **** -0.24
10357 H 95.64359745053181 146.24787479120857 151.99029190873136 H 0.0 **** 0.06
10358 H 97.11822663625219 146.28860474308908 152.98800857827467 H 0.0 **** 0.06
10359 H 95.88832090112881 147.56502685709296 153.16217862618393 H 0.0 **** 0.06
10360 H 96.88680041022985 147.48565930279477 151.68992961443692 H 0.0 **** 0.06
10361 C 38.04120882013629 98.13601592022329 97.19499261918239 C 0.0 **** -0.24
10362 H 38.64761668023294 98.97856438503459 97.5274312579117 H 0.0 **** 0.06
10363 H 38.47848100921357 97.20621946379646 97.55923216554785 H 0.0 **** 0.06
10364 H 38.00722696503959 98.12053099227631 96.10548845863764 H 0.0 **** 0.06
10365 H 37.029460066031874 98.23964043499541 97.58779828556979 H 0.0 **** 0.06
10366 C 7.726202900900034 130.7447455391449 22.100815241907924 C 0.0 **** -0.24
10367 H 7.59778951144159 131.8152892332658 21.9402753307526 H 0.0 **** 0.06
10368 H 6.824052026599304 130.33622188917525 22.558120541958687 H 0.0 **** 0.06
10369 H 8.576432057162805 130.57710114610938 22.761083793653654 H 0.0 **** 0.06
10370 H 7.905069623901085 130.252703589793 21.14496365259862 H 0.0 **** 0.06
10371 C 90.09463434621414 127.86877991193927 134.9808729613985 C 0.0 **** -0.24
10372 H 90.72106705810165 127.27689299724437 134.31278178234666 H 0.0 **** 0.06
10373 H 90.16988025573433 127.47237524559253 135.99427530017104 H 0.0 **** 0.06
10374 H 89.05936271495763 127.81934756395768 134.64603136375712 H 0.0 **** 0.06
10375 H 90.43218524672022 128.9053583358334 134.9705564764402 H 0.0 **** 0.06
10376 C 5.192451046433945 75.7934499878656 119.01265357122634 C 0.0 **** -0.24
10377 H 5.836437647022279 75.10620940181852 119.56240853997747 H 0.0 **** 0.06
10378 H 5.347639084668856 76.8084111553406 119.37973446645535 H 0.0 **** 0.06
10379 H 4.150140595561481 75.50811187385372 119.1583277597517 H 0.0 **** 0.06
10380 H 5.436465786727638 75.74857683009785 117.95115554053524 H 0.0 **** 0.06
10381 C 105.58225262377991 94.35494324507172 153.10151863651944 C 0.0 **** -0.24
10382 H 106.56819871678374 94.15637918375387 152.6792278317352 H 0.0 **** 0.06
10383 H 105.64314695650762 95.20771373074224 153.77853286848176 H 0.0 **** 0.06
10384 H 105.23916993036582 93.47865249837625 153.65135010407818 H 0.0 **** 0.06
10385 H 104.88154738517068 94.57772253399426 152.2980590205574 H 0.0 **** 0.06
10386 C 69.10109087219449 22.789566256326253 109.26725895664637 C 0.0 **** -0.24
10387 H 69.57543505849415 22.235906519474696 108.45692300955608 H 0.0 **** 0.06
10388 H 69.80717924103 23.51527594238121 109.67344805833201 H 0.0 **** 0.06
10389 H 68.7992366239485 22.096682568679796 110.0528861414636 H 0.0 **** 0.06
10390 H 68.22319114249557 23.310744554929812 108.88458661402379 H 0.0 **** 0.06
10391 C 127.4888162952592 102.21599350993418 58.33248840192198 C 0.0 **** -0.24
10392 H 127.43209800161469 101.38178716972206 59.032177397489534 H 0.0 **** 0.06
10393 H 126.75101539702928 102.07699529881185 57.54184865570596 H 0.0 **** 0.06
10394 H 128.48721830505963 102.25605258972658 57.89623781833171 H 0.0 **** 0.06
10395 H 127.28557947545272 103.14733636358727 58.86084446819706 H 0.0 **** 0.06
10396 C 141.7156756198951 125.84925198428317 122.28773294387935 C 0.0 **** -0.24
10397 H 140.731835552182 126.03182795406963 121.85618506192361 H 0.0 **** 0.06
10398 H 141.79240203597186 124.80319198501684 122.58608914439685 H 0.0 **** 0.06
10399 H 141.8536531441418 126.48738031565625 123.16028739843176 H 0.0 **** 0.06
10400 H 142.48391022440427 126.07418859648453 121.54826221855365 H 0.0 **** 0.06
10401 C 146.7826331237432 77.82625153577594 77.57838569657673 C 0.0 **** -0.24
10402 H 146.48793398072237 77.14226667447934 78.37429711263245 H 0.0 **** 0.06
10403 H 145.90916781000456 78.08153156509694 76.9777224527469 H 0.0 **** 0.06
10404 H 147.53060763592566 77.34678228539275 76.94646462521212 H 0.0 **** 0.06
10405 H 147.2018519525558 78.73176921544608 78.01503213124595 H 0.0 **** 0.06
10406 C 155.86602203189452 111.41618102633197 154.29659780880974 C 0.0 **** -0.24
10407 H 154.83054389918257 111.29793394791 153.97432838742466 H 0.0 **** 0.06
10408 H 156.12829683637688 112.47394338463391 154.29164167378744 H 0.0 **** 0.06
10409 H 156.52203086261818 110.8748922495069 153.6151554282577 H 0.0 **** 0.06
10410 H 155.97960329150743 111.01755012132446 155.3043817811153 H 0.0 **** 0.06
10411 C 143.89079611510027 81.15030494640132 48.51943887484239 C 0.0 **** -0.24
10412 H 144.60377698536098 80.4568696911216 48.96472828905871 H 0.0 **** 0.06
10413 H 142.99269556041878 81.19584679111406 49.13688866576757 H 0.0 **** 0.06
10414 H 143.62621462659462 80.80695283305397 47.519237983044576 H 0.0 **** 0.06
10415 H 144.33930487081875 82.14225978098159 48.45662655430597 H 0.0 **** 0.06
10416 C 92.81880367958256 135.8259596445783 139.9671603619737 C 0.0 **** -0.24
10417 H 92.69013691029893 134.76053827937272 139.77503267604143 H 0.0 **** 0.06
10418 H 93.57741486780472 135.96659405453897 140.7365860303005 H 0.0 **** 0.06
10419 H 91.87394270461972 136.2505446652109 140.3060558437904 H 0.0 **** 0.06
10420 H 93.13380423984403 136.32425677046388 139.04979865211067 H 0.0 **** 0.06
10421 C 91.95178942165137 77.81896620662101 11.635184989740537 C 0.0 **** -0.24
10422 H 92.78090571811745 77.11388742379108 11.57357378294813 H 0.0 **** 0.06
10423 H 92.25104209180799 78.68052152819314 12.232606233493613 H 0.0 **** 0.06
10424 H 91.09565946381719 77.33208919623124 12.102425971022882 H 0.0 **** 0.06
10425 H 91.680729904467 78.14859228222545 10.632229735188986 H 0.0 **** 0.06
10426 C 35.27717882170111 13.285941405693961 120.97288954552582 C 0.0 **** -0.24
10427 H 35.08113567157889 12.218337227701454 120.87461314287046 H 0.0 **** 0.06
10428 H 35.875448491948404 13.464973666276364 121.86547100642719 H 0.0 **** 0.06
10429 H 34.33158828154524 13.821878456800135 121.05427050292573 H 0.0 **** 0.06
10430 H 35.819536825398586 13.637679109376393 120.09515823981548 H 0.0 **** 0.06
10431 C 55.32263650293544 129.9015499098861 97.0952463449963 C 0.0 **** -0.24
10432 H 55.58100161657893 129.07737243169223 97.75963763656983 H 0.0 **** 0.06
10433 H 55.18646922621025 129.522845336982 96.08183320063966 H 0.0 **** 0.06
10434 H 56.124187099442395 130.63958154508464 97.10335662051347 H 0.0 **** 0.06
10435 H 54.39743351637969 130.36733686039827 97.43624317863805 H 0.0 **** 0.06
10436 C 116.05592203815155 156.31766019773252 145.44463936772345 C 0.0 **** -0.24
10437 H 116.46189926457856 157.3154425632406 145.27635770850102 H 0.0 **** 0.06
10438 H 116.04989175984235 156.10422556662294 146.51371287416168 H 0.0 **** 0.06
10439 H 116.67490882731695 155.58316790856847 144.92965754310595 H 0.0 **** 0.06
10440 H 115.03754623305414 156.2699124370623 145.05833282890802 H 0.0 **** 0.06
10441 C 139.25056052815498 17.275558828498646 46.9135792336636 C 0.0 **** -0.24
10442 H 140.0712708132032 17.920218519508325 46.60058189016897 H 0.0 **** 0.06
10443 H 139.64089513488418 16.292161519188994 47.17634813233397 H 0.0 **** 0.06
10444 H 138.5352758299013 17.17580449690007 46.09739927891496 H 0.0 **** 0.06
10445 H 138.75429936465008 17.713387203106038 47.779432001082114 H 0.0 **** 0.06
10446 C 95.39944285443197 123.24539444423624 108.86320592791623 C 0.0 **** -0.24
10447 H 94.45973550330109 123.15760924571157 109.40810288696483 H 0.0 **** 0.06
10448 H 96.20287248714236 123.48238859159312 109.56033105415088 H 0.0 **** 0.06
10449 H 95.31634859141388 124.03760911462513 108.12004976951096 H 0.0 **** 0.06
10450 H 95.61829905780164 122.3005453619582 108.36436319567346 H 0.0 **** 0.06
10451 C 66.17336542461311 77.88327840510675 103.74625592569333 C 0.0 **** -0.24
10452 H 66.07179465097829 77.94621081153406 102.66312540430874 H 0.0 **** 0.06
10453 H 66.8214312265388 77.04508708298266 104.00203488498352 H 0.0 **** 0.06
10454 H 65.19158077057153 77.73498196578828 104.19454252755332 H 0.0 **** 0.06
10455 H 66.61021001418356 78.80840731903396 104.12355843271953 H 0.0 **** 0.06
10456 C 24.066179734486298 115.28281763375037 59.71679913401459 C 0.0 **** -0.24
10457 H 25.054382002328303 115.72020428310131 59.580512663345615 H 0.0 **** 0.06
10458 H 23.46872499604875 115.44757051442977 58.819678069457495 H 0.0 **** 0.06
10459 H 23.576163006732514 115.75141451953081 60.571214998842095 H 0.0 **** 0.06
10460 H 24.163857379256108 114.21206701339514 59.89700195104186 H 0.0 **** 0.06
10461 C 54.04244660427895 26.919580007343768 50.18624324103354 C 0.0 **** -0.24
10462 H 54.376202896231916 27.853599695892342 50.637971928551394 H 0.0 **** 0.06
10463 H 53.63407748930507 26.267933500391905 50.960481211450656 H 0.0 **** 0.06
10464 H 54.886012558784984 26.427268204441134 49.70404786955254 H 0.0 **** 0.06
10465 H 53.27080532173375 27.13030850170452 49.44549692689287 H 0.0 **** 0.06
10466 C 10.11984927561447 108.5248082362285 20.448584675621248 C 0.0 **** -0.24
10467 H 9.408191634415616 108.67010812034101 21.261229245536583 H 0.0 **** 0.06
10468 H 9.975237373339283 109.3000814559638 19.695968772831293 H 0.0 **** 0.06
10469 H 9.961981323664808 107.5454570387814 19.996982201640378 H 0.0 **** 0.06
10470 H 11.135697915300113 108.58455215348238 20.841225872228847 H 0.0 **** 0.06
10471 C 129.8077388394508 33.98398588893531 92.96968670450084 C 0.0 **** -0.24
10472 H 129.64204421731765 34.26761407805594 94.00878688453915 H 0.0 **** 0.06
10473 H 128.8861873657443 34.12089189108039 92.40446067445386 H 0.0 **** 0.06
10474 H 130.11035354783354 32.93721379479035 92.92392191102091 H 0.0 **** 0.06
10475 H 130.59242903983943 34.60785418810906 92.54341631262692 H 0.0 **** 0.06
10476 C 44.68684133566609 100.982349249323 39.30340177258631 C 0.0 **** -0.24
10477 H 45.66356062396744 100.61525292163569 38.98796940572959 H 0.0 **** 0.06
10478 H 44.395621639338856 100.48844868268037 40.23089419919074 H 0.0 **** 0.06
10479 H 43.95073328093997 100.76536929991357 38.52913922102101 H 0.0 **** 0.06
10480 H 44.73902530528727 102.05945436606834 39.46427836054136 H 0.0 **** 0.06
10481 C 8.93253978411937 139.0804888940329 18.240735532013723 C 0.0 **** -0.24
10482 H 8.437117293348223 140.036717939855 18.07493022591865 H 0.0 **** 0.06
10483 H 8.71953131924954 138.41117988176165 17.406518695103948 H 0.0 **** 0.06
10484 H 8.564382294611562 138.63731145334106 19.16609961127905 H 0.0 **** 0.06
10485 H 10.00833895640119 139.23710930710212 18.315888878720195 H 0.0 **** 0.06
10486 C 91.40687749154284 124.68059552534416 75.92045782975288 C 0.0 **** -0.24
10487 H 92.18436302579101 124.00198638472605 75.57221699528283 H 0.0 **** 0.06
10488 H 90.42795464103477 124.26895823892187 75.67331682836566 H 0.0 **** 0.06
10489 H 91.52696053059631 125.64941436215261 75.43569399159902 H 0.0 **** 0.06
10490 H 91.48695299989495 124.80224060367772 77.00116698357975 H 0.0 **** 0.06
10491 C 135.1613039034449 7.2047249045194235 99.5663185201721 C 0.0 **** -0.24
10492 H 134.8715995224831 7.561651244460165 98.57851044930817 H 0.0 **** 0.06
10493 H 135.85440906333588 6.3693089449510865 99.46191401203498 H 0.0 **** 0.06
10494 H 134.27386801936564 6.87461089430758 100.10873830901903 H 0.0 **** 0.06
10495 H 135.64383647198923 8.012181715344155 100.11766931256511 H 0.0 **** 0.06
10496 C 94.5680480595081 67.35873033261618 84.98172759380559 C 0.0 **** -0.24
10497 H 94.61552692323262 66.47484735864269 84.34493364823062 H 0.0 **** 0.06
10498 H 95.30253400104483 68.08973804223953 84.64245335131623 H 0.0 **** 0.06
10499 H 94.78571828370373 67.07521377190879 86.01102145962834 H 0.0 **** 0.06
10500 H 93.5697463157996 67.79286325651172 84.92704589878305 H 0.0 **** 0.06
10501 C 47.36545540671442 33.765572882848886 8.741454548668855 C 0.0 **** -0.24
10502 H 47.82562104216966 34.67886522891422 9.117641353901462 H 0.0 **** 0.06
10503 H 47.20483915571104 33.07250102620492 9.56877054190781 H 0.0 **** 0.06
10504 H 48.02174929306936 33.30542031834855 8.003283981956173 H 0.0 **** 0.06
10505 H 46.408498457338666 34.00528308048365 8.276965258666252 H 0.0 **** 0.06
10506 C 38.74105232824303 17.539744418143478 146.76172257251716 C 0.0 **** -0.24
10507 H 39.74716104812228 17.450714776384714 146.35468479179497 H 0.0 **** 0.06
10508 H 38.745175174314056 17.239324791831343 147.80947106546492 H 0.0 **** 0.06
10509 H 38.06405310572421 16.894156269278902 146.20179323172707 H 0.0 **** 0.06
10510 H 38.40578373665886 18.57398876689328 146.68046697833512 H 0.0 **** 0.06
10511 C 111.93572596607066 97.43843676130143 57.997882713992894 C 0.0 **** -0.24
10512 H 111.12886361795375 97.23591880559115 57.29398963495515 H 0.0 **** 0.06
10513 H 112.72986202482241 96.70562466235071 57.86007066756686 H 0.0 **** 0.06
10514 H 111.55345953567664 97.37401156497117 59.0162768445407 H 0.0 **** 0.06
10515 H 112.32912458165407 98.43982240571518 57.81952012275811 H 0.0 **** 0.06
10516 C 120.00497945829991 42.02820530154406 58.24503261276794 C 0.0 **** -0.24
10517 H 120.95857256714618 41.50840682645975 58.34694747299881 H 0.0 **** 0.06
10518 H 119.9479997575067 42.49222286822612 57.26042768463242 H 0.0 **** 0.06
10519 H 119.92644230020278 42.79535964689347 59.014294552221315 H 0.0 **** 0.06
10520 H 119.18883377628893 41.313810041157126 58.358837414619074 H 0.0 **** 0.06
10521 C 65.0624719996855 27.379256402296107 111.4526599236745 C 0.0 **** -0.24
10522 H 64.8383059545892 28.05292948942065 110.62512863380647 H 0.0 **** 0.06
10523 H 64.37536371538312 27.575660301669586 112.27672097733614 H 0.0 **** 0.06
10524 H 66.08673957880819 27.54410797783555 111.78684061809838 H 0.0 **** 0.06
10525 H 64.94921294155944 26.34744197331736 111.12243094545369 H 0.0 **** 0.06
10526 C 86.07594179276666 160.36955111362832 96.05319289331965 C 0.0 **** -0.24
10527 H 85.83820856950864 161.2595638092406 96.63564045796124 H 0.0 **** 0.06
10528 H 85.81744044432666 160.54044870968693 95.00803217404928 H 0.0 **** 0.06
10529 H 85.50700018471508 159.52276324860557 96.43535722276494 H 0.0 **** 0.06
10530 H 87.14211960983556 160.15765876046885 96.1335878484453 H 0.0 **** 0.06
10531 C 125.802516295962 160.97114479399886 143.39578897930892 C 0.0 **** -0.24
10532 H 125.39974037305205 160.42767598380414 142.54159342906192 H 0.0 **** 0.06
10533 H 125.04451081023896 161.0332834141803 144.17714508059467 H 0.0 **** 0.06
10534 H 126.08664288568801 161.97660999928138 143.08501307460426 H 0.0 **** 0.06
10535 H 126.67755763333551 160.44757980900522 143.77913631549993 H 0.0 **** 0.06
10536 C 78.73225635933044 25.950682418533745 33.38314891450693 C 0.0 **** -0.24
10537 H 78.79496810568004 25.850802815909333 32.29965265201395 H 0.0 **** 0.06
10538 H 77.83901662182062 26.51795812128222 33.64406632268566 H 0.0 **** 0.06
10539 H 79.61539467945097 26.473503345260497 33.75104952312782 H 0.0 **** 0.06
10540 H 78.68080572995356 24.960986731181947 33.83665098311221 H 0.0 **** 0.06
10541 C 77.13365456786981 56.905910280479944 129.85303663730951 C 0.0 **** -0.24
10542 H 76.85864686665872 57.247606081316775 130.85019136835206 H 0.0 **** 0.06
10543 H 77.7992688054235 57.63486263765573 129.38987896589532 H 0.0 **** 0.06
10544 H 76.23544009851152 56.79703720249499 129.2450413397712 H 0.0 **** 0.06
10545 H 77.64162071216647 55.94379597523222 129.92570948045255 H 0.0 **** 0.06
10546 C 36.428674381706415 123.05138874369081 53.9636818997991 C 0.0 **** -0.24
10547 H 36.421012125056365 122.12912759447599 53.38360734557284 H 0.0 **** 0.06
10548 H 36.291899781402805 123.90232867562 53.295831752813626 H 0.0 **** 0.06
10549 H 37.38191147090454 123.14629137048337 54.48333407881 H 0.0 **** 0.06
10550 H 35.61799460762674 123.0288988675683 54.692479805917685 H 0.0 **** 0.06
10551 C 29.6596967656684 40.11504091172682 54.40034852757242 C 0.0 **** -0.24
10552 H 29.21559243247691 39.98702530750079 55.38748894364103 H 0.0 **** 0.06
10553 H 30.354735332561972 39.29784567867763 54.206332522054794 H 0.0 **** 0.06
10554 H 30.193368992610658 41.06425797144378 54.36237803574582 H 0.0 **** 0.06
10555 H 28.873040121768213 40.1103175255941 53.645726187400996 H 0.0 **** 0.06
10556 C 77.2791584029213 40.31750301508919 87.5603546884069 C 0.0 **** -0.24
10557 H 76.28443706922451 40.65270998608554 87.85556078134903 H 0.0 **** 0.06
10558 H 77.66030450437825 40.96454417721378 86.77035580380254 H 0.0 **** 0.06
10559 H 77.22308997907902 39.29215014908601 87.19623292719189 H 0.0 **** 0.06
10560 H 77.94739517023584 40.36212640667179 88.4205786384079 H 0.0 **** 0.06
10561 C 135.9976032494817 1.7149577124999098 27.092767905713885 C 0.0 **** -0.24
10562 H 135.94928473933487 2.650500670251475 26.536076309823414 H 0.0 **** 0.06
10563 H 135.09233120826033 1.1350087366892794 26.90803396306555 H 0.0 **** 0.06
10564 H 136.08105453444063 1.9295259674971987 28.157879253738002 H 0.0 **** 0.06
10565 H 136.86738097781188 1.1434799064310894 26.7687097678251 H 0.0 **** 0.06
10566 C 111.23349301990015 63.849348287529395 0.41177056593380357 C 0.0 **** -0.24
10567 H 111.9656102766532 63.22537907956057 -0.0993023821821879 H 0.0 **** 0.06
10568 H 111.71608752225171 64.75988888221826 0.7669046640173036 H 0.0 **** 0.06
10569 H 110.81903631629228 63.30314873521756 1.2597331696995795 H 0.0 **** 0.06
10570 H 110.4306501605659 64.10957872183627 -0.2792832470111364 H 0.0 **** 0.06
10571 C 61.297366743813214 75.77995571025644 30.86524265668767 C 0.0 **** -0.24
10572 H 61.060277184806054 76.40612408036237 31.724734679153734 H 0.0 **** 0.06
10573 H 62.0673011503352 75.05992220950634 31.141947580075403 H 0.0 **** 0.06
10574 H 61.66097609518299 76.40503298727 30.049154108572047 H 0.0 **** 0.06
10575 H 60.4009125449284 75.24874356388706 30.545134258949588 H 0.0 **** 0.06
10576 C 84.04485675330318 42.836160826295156 108.1025855891537 C 0.0 **** -0.24
10577 H 83.9897877076273 42.21066278129409 108.99394044143793 H 0.0 **** 0.06
10578 H 84.829523790689 43.58197315553598 108.22907061162962 H 0.0 **** 0.06
10579 H 83.08802497766763 43.336369563205224 107.95175773990232 H 0.0 **** 0.06
10580 H 84.2701863385475 42.21415751742144 107.23600129804481 H 0.0 **** 0.06
10581 C 71.43167449667187 94.94688524314097 132.67514255297326 C 0.0 **** -0.24
10582 H 70.34939989452556 95.07363191144748 132.65841502263012 H 0.0 **** 0.06
10583 H 71.67298023547453 93.88407197437712 132.70813309419492 H 0.0 **** 0.06
10584 H 71.84077733256113 95.43981985417251 133.55699015425432 H 0.0 **** 0.06
10585 H 71.86308308334313 95.3900707743577 131.77791958454085 H 0.0 **** 0.06
10586 C 59.86311846893702 60.32748237292287 102.09820936689752 C 0.0 **** -0.24
10587 H 59.2260674150058 60.958482033840994 101.47752726398215 H 0.0 **** 0.06
10588 H 60.87398987270106 60.31992875977352 101.68989230854007 H 0.0 **** 0.06
10589 H 59.46729328309556 59.31189128739854 102.10907347046896 H 0.0 **** 0.06
10590 H 59.88336156690323 60.72051902098508 103.11387428048755 H 0.0 **** 0.06
10591 C 160.64932098035348 108.30711709917801 151.67703921662792 C 0.0 **** -0.24
10592 H 160.65499995217812 108.64518654134235 150.6400022318672 H 0.0 **** 0.06
10593 H 160.0118045916891 108.96268587953259 152.2697088250776 H 0.0 **** 0.06
10594 H 161.66528065559964 108.33118073819062 152.07207308437293 H 0.0 **** 0.06
10595 H 160.26512312151786 107.28745931233004 151.7238889895934 H 0.0 **** 0.06
10596 C 115.81763713098923 14.895177091880157 6.054708434995632 C 0.0 **** -0.24
10597 H 115.67507837955691 15.570410652139685 6.898283263180446 H 0.0 **** 0.06
10598 H 114.88473347728728 14.809289769185682 5.496139688660463 H 0.0 **** 0.06
10599 H 116.11267578096093 13.912007401362331 6.423368787086531 H 0.0 **** 0.06
10600 H 116.5971404458887 15.287327994011434 5.402206266648818 H 0.0 **** 0.06
10601 C 35.03235663282223 74.58540975489564 58.07325645853611 C 0.0 **** -0.24
10602 H 35.34462143630297 73.55764352804907 57.88496900154939 H 0.0 **** 0.06
10603 H 34.52153567091793 74.63857806715727 59.03616144727171 H 0.0 **** 0.06
10604 H 34.35435374674364 74.90864861098846 57.283387112908116 H 0.0 **** 0.06
10605 H 35.907979685502795 75.23383079056929 58.09008697548718 H 0.0 **** 0.06
10606 C 130.3081650923196 14.00443872267278 159.03555245657918 C 0.0 **** -0.24
10607 H 130.13255832907194 13.143747479822181 158.38989951812005 H 0.0 **** 0.06
10608 H 129.35867246369952 14.352581017330856 159.44246958988032 H 0.0 **** 0.06
10609 H 130.77067858249924 14.80408864750342 158.45655060847469 H 0.0 **** 0.06
10610 H 130.97062672812504 13.717289772722417 159.85229900604702 H 0.0 **** 0.06
10611 C 31.778857776168508 94.9018376445415 147.49100167228502 C 0.0 **** -0.24
10612 H 31.758841231692173 93.84232057135802 147.74716525364875 H 0.0 **** 0.06
10613 H 32.00730386127614 95.01382788176636 146.4310943981337 H 0.0 **** 0.06
10614 H 32.542283199726626 95.40487272291068 148.084054092024 H 0.0 **** 0.06
10615 H 30.80563973254513 95.34429487986864 147.70163895736155 H 0.0 **** 0.06
10616 C 140.29347176901243 27.37613610982072 109.02663810767964 C 0.0 **** -0.24
10617 H 139.963663803514 27.5319811470888 107.99977644797892 H 0.0 **** 0.06
10618 H 139.47380223956947 27.604087535604577 109.70929828557774 H 0.0 **** 0.06
10619 H 141.13708468132108 28.03178731730543 109.24093833077089 H 0.0 **** 0.06
10620 H 140.59751792869002 26.337937348825307 109.15760414054313 H 0.0 **** 0.06
10621 C 70.52558677444597 69.67102966712169 49.57408105772015 C 0.0 **** -0.24
10622 H 70.0198393776223 68.77539887618758 49.93648131717765 H 0.0 **** 0.06
10623 H 70.92895421277366 70.22673640088529 50.421260864879 H 0.0 **** 0.06
10624 H 69.81549863497992 70.29562453958745 49.033110724053586 H 0.0 **** 0.06
10625 H 71.33869554765927 69.38312752891432 48.90724572889047 H 0.0 **** 0.06
10626 C 73.53190950445384 93.0434156421156 108.8143288952829 C 0.0 **** -0.24
10627 H 73.97581503638071 92.11760902462434 108.44630731012384 H 0.0 **** 0.06
10628 H 72.9963015787755 93.53676103207596 108.00276290518258 H 0.0 **** 0.06
10629 H 74.3181389552596 93.7017003275884 109.18368018313959 H 0.0 **** 0.06
10630 H 72.83744442284188 92.81656400322017 109.6235961298843 H 0.0 **** 0.06
10631 C 126.28594830556557 151.6679500299694 131.03966624849284 C 0.0 **** -0.24
10632 H 125.51067138869763 151.9045200542506 131.7679671215958 H 0.0 **** 0.06
10633 H 127.16417682381422 151.28086012291436 131.55673581929358 H 0.0 **** 0.06
10634 H 126.55594982961051 152.56968242597998 130.48992110470192 H 0.0 **** 0.06
10635 H 125.91334341716467 150.9153698708846 130.34394964575625 H 0.0 **** 0.06
10636 C 145.36843776515315 26.42639947200672 95.53645224353738 C 0.0 **** -0.24
10637 H 145.21649044538202 27.433461778028132 95.14742217407711 H 0.0 **** 0.06
10638 H 144.64408328344157 26.23062088387718 96.32664409658959 H 0.0 **** 0.06
10639 H 146.37783884773393 26.341898075534885 95.93909454867466 H 0.0 **** 0.06
10640 H 145.2352921794851 25.70289971658447 94.73312032886288 H 0.0 **** 0.06
10641 C 119.90610422709776 160.59988807820872 70.26400668958955 C 0.0 **** -0.24
10642 H 119.24992378502623 159.78262455611093 70.56297894916997 H 0.0 **** 0.06
10643 H 120.56888115415092 160.85515473642795 71.09090422667734 H 0.0 **** 0.06
10644 H 119.30465764028091 161.4684852786168 69.9974682559766 H 0.0 **** 0.06
10645 H 120.5008869228059 160.29210177813474 69.40390785845969 H 0.0 **** 0.06
10646 C 97.44972212920408 107.70661627609377 75.81732299523668 C 0.0 **** -0.24
10647 H 97.56662811315493 107.01498079535637 76.65150714888708 H 0.0 **** 0.06
10648 H 98.35425854706534 108.30466198949335 75.71244205602935 H 0.0 **** 0.06
10649 H 96.59958940579725 108.36196627492996 76.00604389804516 H 0.0 **** 0.06
10650 H 97.27736897062846 107.14341228437092 74.90065049052143 H 0.0 **** 0.06
10651 C 116.91348542157095 90.81533745027849 52.067060606994744 C 0.0 **** -0.24
10652 H 116.2441138837454 91.35148815339414 51.39464629247911 H 0.0 **** 0.06
10653 H 117.528015831691 90.12307564496825 51.491533175880534 H 0.0 **** 0.06
10654 H 116.32553919815558 90.26057238603414 52.79773618105264 H 0.0 **** 0.06
10655 H 117.55618783844164 91.52915129995768 52.5837242215365 H 0.0 **** 0.06
10656 C 56.597793295030925 4.068437970452692 40.577786307449 C 0.0 **** -0.24
10657 H 56.84330880821092 3.1067274052210223 41.029221577750604 H 0.0 **** 0.06
10658 H 56.76673106979055 4.017950215447229 39.502029886150524 H 0.0 **** 0.06
10659 H 57.231173396088806 4.844369536230545 41.00876279780533 H 0.0 **** 0.06
10660 H 55.55194367168312 4.304587303842425 40.77090512110453 H 0.0 **** 0.06
10661 C 130.8691886559573 52.76788929858765 137.7950360945204 C 0.0 **** -0.24
10662 H 129.95438839493846 53.27611555040106 137.49191502442847 H 0.0 **** 0.06
10663 H 131.57042173943154 53.49574579240368 138.2046200028443 H 0.0 **** 0.06
10664 H 131.31678116302186 52.279461803370424 136.92909995087618 H 0.0 **** 0.06
10665 H 130.63580172880515 52.02035959746843 138.55374998570326 H 0.0 **** 0.06
10666 C 102.49203127163469 134.71071910833928 95.95644278731136 C 0.0 **** -0.24
10667 H 101.62957378037072 135.17371439336074 96.4352791675048 H 0.0 **** 0.06
10668 H 103.31286831305994 135.42811941356945 95.91505110714903 H 0.0 **** 0.06
10669 H 102.22560614539978 134.4044274614468 94.94480553106705 H 0.0 **** 0.06
10670 H 102.80164100460942 133.8378750399496 96.53161833851453 H 0.0 **** 0.06
10671 C 49.189803384065215 56.02960550414056 13.425438879021698 C 0.0 **** -0.24
10672 H 48.531402642654484 55.16211748541595 13.369565015940474 H 0.0 **** 0.06
10673 H 49.17134050751736 56.56199887730398 12.474995695636402 H 0.0 **** 0.06
10674 H 50.20664422727475 55.70078242921454 13.638835051831542 H 0.0 **** 0.06
10675 H 48.84911562517976 56.6923527519174 14.221029098517583 H 0.0 **** 0.06
10676 C 75.65631630319112 129.59329707785736 63.44153145218978 C 0.0 **** -0.24
10677 H 75.7529836978209 128.61348109556624 63.909194697793396 H 0.0 **** 0.06
10678 H 76.63483351419194 129.92758986506885 63.09522625662602 H 0.0 **** 0.06
10679 H 75.26559437495573 130.30516437341498 64.16721190645767 H 0.0 **** 0.06
10680 H 74.9747406270476 129.52614694853747 62.59436719853245 H 0.0 **** 0.06
10681 C 19.339693518492993 113.33726955261005 6.494817508932421 C 0.0 **** -0.24
10682 H 18.57490464708991 113.69384848137537 5.803992392502458 H 0.0 **** 0.06
10683 H 20.326607423341102 113.58493252972707 6.1031417890863295 H 0.0 **** 0.06
10684 H 19.253709864306018 112.25606057002548 6.60614955366821 H 0.0 **** 0.06
10685 H 19.203414095096605 113.81499080155862 7.465344273823398 H 0.0 **** 0.06
10686 C 93.17208768982623 11.691770142364732 6.602391197665554 C 0.0 **** -0.24
10687 H 94.19560209301294 11.3530049922187 6.439141933243377 H 0.0 **** 0.06
10688 H 93.05997544287213 12.705995735592182 6.221771853147288 H 0.0 **** 0.06
10689 H 92.95079385743452 11.677131306274475 7.669860924390775 H 0.0 **** 0.06
10690 H 92.4831022079079 11.02759087024262 6.08000075465435 H 0.0 **** 0.06
10691 C 138.21275739218112 94.1371760589866 53.58527268647016 C 0.0 **** -0.24
10692 H 137.45385489911322 94.65116195831365 54.17639568605243 H 0.0 **** 0.06
10693 H 139.19183710022455 94.29218296138293 54.03812214178812 H 0.0 **** 0.06
10694 H 138.21341995442526 94.53484256853932 52.57078821619574 H 0.0 **** 0.06
10695 H 137.98969913039517 93.07039907712038 53.55681652592918 H 0.0 **** 0.06
10696 C 41.51675852485528 33.573395935289795 58.192123482697724 C 0.0 **** -0.24
10697 H 41.26095493681282 33.42667833097812 57.14227999153181 H 0.0 **** 0.06
10698 H 40.87687405628705 32.94572032238108 58.81188797885028 H 0.0 **** 0.06
10699 H 41.36745576621925 34.61978071288945 58.45928907572424 H 0.0 **** 0.06
10700 H 42.55955562000648 33.30225058185641 58.35292221503009 H 0.0 **** 0.06
10701 C 68.16133349130382 145.79367879929703 124.48685433278888 C 0.0 **** -0.24
10702 H 68.93421834723415 145.44039592723357 123.80542567219365 H 0.0 **** 0.06
10703 H 68.2037805561173 145.22047450255195 125.41363206903006 H 0.0 **** 0.06
10704 H 67.18275199648627 145.66451392108723 124.02440806569783 H 0.0 **** 0.06
10705 H 68.32372807404761 146.84961326807036 124.70438656211533 H 0.0 **** 0.06
10706 C 54.02968139821132 51.65806221573831 52.99381842903209 C 0.0 **** -0.24
10707 H 54.732380052746066 50.82479336910609 52.96366027736178 H 0.0 **** 0.06
10708 H 53.196768882515755 51.45573736305778 52.32038375972162 H 0.0 **** 0.06
10709 H 54.53733948289323 52.571158910364744 52.681250703286906 H 0.0 **** 0.06
10710 H 53.65534515873662 51.779978506742225 54.01003820909328 H 0.0 **** 0.06
10711 C 26.266771226366046 157.1451287468259 131.05332085867082 C 0.0 **** -0.24
10712 H 26.68337810038878 156.980286265761 130.05969793099334 H 0.0 **** 0.06
10713 H 25.345269369054733 156.57117422123147 131.159901537791 H 0.0 **** 0.06
10714 H 26.0514582896204 158.20499185303154 131.18410446311927 H 0.0 **** 0.06
10715 H 26.98520830856546 156.82403120010866 131.80585610950212 H 0.0 **** 0.06
10716 C 119.60729173871161 88.32215344966764 49.53541464901704 C 0.0 **** -0.24
10717 H 119.00814214439686 88.85538260749853 48.79634677120234 H 0.0 **** 0.06
10718 H 119.24891886111297 87.29671541419548 49.6214817715053 H 0.0 **** 0.06
10719 H 119.52025770998387 88.82135906180318 50.50050774975344 H 0.0 **** 0.06
10720 H 120.65142734967174 88.31786019184312 49.2207699540437 H 0.0 **** 0.06
10721 C 121.26523961955999 88.17372049434725 135.31051620083807 C 0.0 **** -0.24
10722 H 121.70861030222815 87.44576203888987 134.63094590479386 H 0.0 **** 0.06
10723 H 121.61747601577991 89.17261160701987 135.05338020917836 H 0.0 **** 0.06
10724 H 121.55469013113128 87.93783255243711 136.3343814872566 H 0.0 **** 0.06
10725 H 120.17869699934192 88.13707342847931 135.22288043153944 H 0.0 **** 0.06
10726 C 43.928945704838625 61.32985032672542 11.882181126663973 C 0.0 **** -0.24
10727 H 44.708552693638154 61.32781071024158 11.12105195963067 H 0.0 **** 0.06
10728 H 43.93377250001595 60.37674842991825 12.410653756436147 H 0.0 **** 0.06
10729 H 42.9585267853835 61.47792833193455 11.407357042297981 H 0.0 **** 0.06
10730 H 44.11360257475711 62.13893818770714 12.589290416876032 H 0.0 **** 0.06
10731 C 131.40299766034332 96.48151850915693 56.00051120365396 C 0.0 **** -0.24
10732 H 132.22532356638533 95.91790498410528 55.560804792544474 H 0.0 **** 0.06
10733 H 130.95281370118437 95.9004221267822 56.80536600673955 H 0.0 **** 0.06
10734 H 130.65396441295638 96.68630422585247 55.235931682355755 H 0.0 **** 0.06
10735 H 131.78125078210047 97.4234034590439 56.399393655031034 H 0.0 **** 0.06
10736 C 99.93707916601636 105.1088566879742 2.2337068761288847 C 0.0 **** -0.24
10737 H 99.7808478372796 106.18705228921593 2.2423578697992497 H 0.0 **** 0.06
10738 H 100.98963545060269 104.89544606591278 2.0477982254015785 H 0.0 **** 0.06
10739 H 99.3310873902544 104.6608154511853 1.4459665091198914 H 0.0 **** 0.06
10740 H 99.64640073377399 104.69135326455634 3.197563083200812 H 0.0 **** 0.06
10741 C 1.2662179677893732 145.62929943790314 58.769409372914566 C 0.0 **** -0.24
10742 H 1.9055373284722066 145.18886412409833 58.00392824148763 H 0.0 **** 0.06
10743 H 1.8756119448928814 146.21530577988005 59.45772864272392 H 0.0 **** 0.06
10744 H 0.7566271199549703 144.83715055481736 59.31807609709972 H 0.0 **** 0.06
10745 H 0.5274113896101085 146.27707017199543 58.29603973424324 H 0.0 **** 0.06
10746 C 118.55438999739238 11.641391471562656 98.18774396131471 C 0.0 **** -0.24
10747 H 118.64434286574772 12.526966321493433 97.5589423143744 H 0.0 **** 0.06
10748 H 117.50100719639283 11.387418390254737 98.30929735822122 H 0.0 **** 0.06
10749 H 118.99390053050308 11.844473657486645 99.16494660673445 H 0.0 **** 0.06
10750 H 119.07834085358135 10.80863754396853 97.71985699135223 H 0.0 **** 0.06
10751 C 16.740573146050536 14.31801078205143 9.454310429508439 C 0.0 **** -0.24
10752 H 17.702342419557112 14.826203072952012 9.5216254094114 H 0.0 **** 0.06
10753 H 16.111328759790524 14.82567326238734 8.723370514386403 H 0.0 **** 0.06
10754 H 16.253088984149542 14.334382466807654 10.429181201028427 H 0.0 **** 0.06
10755 H 16.896896545344475 13.28444773231081 9.144227706280276 H 0.0 **** 0.06
10756 C 42.4103357680694 55.27510898493688 36.98914705193414 C 0.0 **** -0.24
10757 H 41.353002032005335 55.243494381845096 37.25186884314604 H 0.0 **** 0.06
10758 H 42.81322290981305 56.26059438895339 37.22233649979907 H 0.0 **** 0.06
10759 H 42.52567988984016 55.07766497137314 35.92419991726379 H 0.0 **** 0.06
10760 H 42.949376652633475 54.51819747406742 37.55984467571845 H 0.0 **** 0.06
10761 C 37.47940662652712 154.69983433175614 23.444226736901044 C 0.0 **** -0.24
10762 H 36.771148005354405 154.0122621878538 23.906750395495692 H 0.0 **** 0.06
10763 H 38.090743132800256 155.16552774214503 24.217238496814275 H 0.0 **** 0.06
10764 H 36.93507280067281 155.46978418146793 22.898008143300785 H 0.0 **** 0.06
10765 H 38.120900125871145 154.15111121474786 22.754189848773763 H 0.0 **** 0.06
10766 C 35.40870905900411 116.89815373307025 18.7700072056723 C 0.0 **** -0.24
10767 H 35.40919971316262 116.54666232308486 19.80193279086251 H 0.0 **** 0.06
10768 H 35.64968001208642 117.96179643662128 18.749124024055106 H 0.0 **** 0.06
10769 H 34.42233617104014 116.74011033202848 18.333677432519664 H 0.0 **** 0.06
10770 H 36.15255590195768 116.34481918859524 18.19817019811171 H 0.0 **** 0.06
10771 C 81.41434737175385 104.70754557762828 148.47726933313137 C 0.0 **** -0.24
10772 H 80.65671194998562 105.47963782268857 148.6112170394725 H 0.0 **** 0.06
10773 H 82.39980477936192 105.1706987854362 148.42141524148434 H 0.0 **** 0.06
10774 H 81.21645644727082 104.16193547733829 147.55389579135462 H 0.0 **** 0.06
10775 H 81.3834701846191 104.01806026162558 149.32052874395845 H 0.0 **** 0.06
10776 C 43.021289421659404 97.25079657182471 43.99573697901636 C 0.0 **** -0.24
10777 H 42.20248102580271 96.7606751310368 44.52357282046114 H 0.0 **** 0.06
10778 H 42.867565974467325 97.15715432234174 42.92005202098997 H 0.0 **** 0.06
10779 H 43.964919611424264 96.7778161562569 44.27059238718225 H 0.0 **** 0.06
10780 H 43.05024482063669 98.30456875720711 44.26913697774994 H 0.0 **** 0.06
10781 C 125.69800555304477 17.981024708071203 162.01130911539605 C 0.0 **** -0.24
10782 H 124.9413835565899 18.477020460262764 161.4025133738374 H 0.0 **** 0.06
10783 H 125.22298467486672 17.22382222756093 162.63568436084188 H 0.0 **** 0.06
10784 H 126.19426529378023 18.716694349234785 162.644877839818 H 0.0 **** 0.06
10785 H 126.43295065670765 17.50659448205772 161.36081659491433 H 0.0 **** 0.06
10786 C 56.333186652550324 76.0247223884383 91.03585322159182 C 0.0 **** -0.24
10787 H 56.420720742255085 75.43284497708174 91.94636502058034 H 0.0 **** 0.06
10788 H 56.65733303124465 77.04615994275501 91.23441629869916 H 0.0 **** 0.06
10789 H 55.294348150849615 76.03043607658462 90.70430411743473 H 0.0 **** 0.06
10790 H 56.95993421226696 75.58887807236849 90.25761605066305 H 0.0 **** 0.06
10791 C 136.59778128849325 15.723910122402351 145.7311860863497 C 0.0 **** -0.24
10792 H 136.89093937023264 16.351415825130175 146.57210448324523 H 0.0 **** 0.06
10793 H 135.5102648727352 15.699886518695536 145.65791409991408 H 0.0 **** 0.06
10794 H 136.97427763352457 14.713067037306146 145.88341477579897 H 0.0 **** 0.06
10795 H 137.0144921604455 16.132672113732042 144.8104670465319 H 0.0 **** 0.06
10796 C 4.679504033288765 149.94054603738581 79.54822948347486 C 0.0 **** -0.24
10797 H 5.231417204163563 149.15408954199194 80.06297979984544 H 0.0 **** 0.06
10798 H 4.387472616804217 150.7077311906 80.26596932189457 H 0.0 **** 0.06
10799 H 3.7893724016412023 149.51620634588036 79.08492469318846 H 0.0 **** 0.06
10800 H 5.3130328064777075 150.38375594662068 78.77934122606398 H 0.0 **** 0.06
10801 C 161.68537382587522 109.5488326130108 95.48513999573933 C 0.0 **** -0.24
10802 H 161.6779027083346 109.84883833604067 94.43735204060401 H 0.0 **** 0.06
10803 H 161.95488427991307 110.40353034767514 96.10594654112316 H 0.0 **** 0.06
10804 H 162.41357455797743 108.75019378133516 95.63001786161607 H 0.0 **** 0.06
10805 H 160.69450094892727 109.19231101346838 95.7684228568542 H 0.0 **** 0.06
10806 C 109.57122614147835 92.64354449272615 139.8357682490687 C 0.0 **** -0.24
10807 H 109.60035226260962 93.70079707308054 139.5717180381134 H 0.0 **** 0.06
10808 H 108.86143866837966 92.49113634605739 140.64847996819552 H 0.0 **** 0.06
10809 H 110.56318723753552 92.32206427207662 140.15413992729347 H 0.0 **** 0.06
10810 H 109.26133306313454 92.0602720762859 138.9688487518275 H 0.0 **** 0.06
10811 C 42.20836645208459 151.49174713302207 20.530370244432135 C 0.0 **** -0.24
10812 H 41.30143004113074 151.9403671687546 20.124907214427736 H 0.0 **** 0.06
10813 H 42.57960112219939 150.7343129369009 19.840594853230698 H 0.0 **** 0.06
10814 H 41.986032753318796 151.03053230937775 21.493126962099353 H 0.0 **** 0.06
10815 H 42.96678665889834 152.26338490492574 20.66535475187908 H 0.0 **** 0.06
10816 C 119.02956478602204 39.18599150095618 71.33739968033133 C 0.0 **** -0.24
10817 H 119.59634218147158 38.282413533956884 71.56252210379618 H 0.0 **** 0.06
10818 H 119.43870561878396 40.02232268085528 71.90612004957867 H 0.0 **** 0.06
10819 H 117.98540549461418 39.036584571844216 71.61114916861295 H 0.0 **** 0.06
10820 H 119.09956863851747 39.40281676846574 70.27149953559707 H 0.0 **** 0.06
10821 C 8.879267756553759 112.14476512694989 2.7227319919628883 C 0.0 **** -0.24
10822 H 9.648963186189405 112.3164056819385 1.969861923772001 H 0.0 **** 0.06
10823 H 7.968240324219494 112.67057916275331 2.436458552225936 H 0.0 **** 0.06
10824 H 9.226059942560767 112.51588552224976 3.6875686165005774 H 0.0 **** 0.06
10825 H 8.675653446423354 111.07724021508415 2.795818106164603 H 0.0 **** 0.06
10826 C 76.72918653838863 156.36336049289042 111.04796438325738 C 0.0 **** -0.24
10827 H 77.52360766149451 155.61826624798823 111.03569855503952 H 0.0 **** 0.06
10828 H 77.14227771732436 157.33182542961117 111.330186288195 H 0.0 **** 0.06
10829 H 75.96655073152542 156.068915482048 111.76917283313239 H 0.0 **** 0.06
10830 H 76.28279454016058 156.434145907607 110.05601253503346 H 0.0 **** 0.06
10831 C 30.370709696950883 150.9332808914151 59.31403371730576 C 0.0 **** -0.24
10832 H 29.889992475999065 149.97007965011582 59.14493860168025 H 0.0 **** 0.06
10833 H 29.735501016879425 151.73022990806845 58.92774490628835 H 0.0 **** 0.06
10834 H 31.332516914519033 150.954285812386 58.80237904726613 H 0.0 **** 0.06
10835 H 30.525857824345678 151.0779847922073 60.38383731491106 H 0.0 **** 0.06
10836 C 20.21246445436293 50.34234331998957 58.80383075542704 C 0.0 **** -0.24
10837 H 19.767806991281134 51.019802957381074 58.075024177553985 H 0.0 **** 0.06
10838 H 21.18469833946091 50.7274780660012 59.112502714689015 H 0.0 **** 0.06
10839 H 20.338008281187342 49.357457804597075 58.35380838885254 H 0.0 **** 0.06
10840 H 19.55902641746394 50.264442768136576 59.67262306907173 H 0.0 **** 0.06
10841 C 100.63443658544287 51.982459484968075 104.04630822488855 C 0.0 **** -0.24
10842 H 101.62073181534626 52.441528390932376 103.97950020557892 H 0.0 **** 0.06
10843 H 99.89687965889561 52.636497277426656 103.5818653513814 H 0.0 **** 0.06
10844 H 100.37557032547127 51.827983276814734 105.09413418274102 H 0.0 **** 0.06
10845 H 100.64619375796752 51.02244444039465 103.52907831956588 H 0.0 **** 0.06
10846 C 31.04778347969878 107.77591232805099 134.26130545425667 C 0.0 **** -0.24
10847 H 31.68484320997385 108.57693724341499 133.88631766655465 H 0.0 **** 0.06
10848 H 31.64089127699839 107.09748159101511 134.87612314300281 H 0.0 **** 0.06
10849 H 30.621504921109846 107.2271138848206 133.4216003203232 H 0.0 **** 0.06
10850 H 30.244138482324047 108.2028521465447 134.86236369142642 H 0.0 **** 0.06
10851 C 149.62139855077095 53.75462087939262 21.26119956610603 C 0.0 **** -0.24
10852 H 149.5415949693476 52.990611972418776 22.034733433718735 H 0.0 **** 0.06
10853 H 150.49068620970488 53.54907609812108 20.635953864682776 H 0.0 **** 0.06
10854 H 149.73176983568806 54.73333417747757 21.728646172232423 H 0.0 **** 0.06
10855 H 148.72062768075415 53.744853524425636 20.64680366729209 H 0.0 **** 0.06
10856 C 36.51559534443565 109.5580662915138 5.161684924847826 C 0.0 **** -0.24
10857 H 36.795520782466994 109.74909742280116 6.1973599187367086 H 0.0 **** 0.06
10858 H 37.41350248930445 109.49647932079452 4.547492255721892 H 0.0 **** 0.06
10859 H 35.88318693070411 110.36957213450623 4.80092636731478 H 0.0 **** 0.06
10860 H 35.96772442211626 108.61720894914393 5.101031825876568 H 0.0 **** 0.06
10861 C 93.91390537034977 148.22030244384717 22.389760222602376 C 0.0 **** -0.24
10862 H 93.97668137293847 147.21363575103408 21.978553282105395 H 0.0 **** 0.06
10863 H 94.49180341860523 148.90326595394617 21.76662976792153 H 0.0 **** 0.06
10864 H 94.31603294012078 148.22495284009375 23.403433583380718 H 0.0 **** 0.06
10865 H 92.87190654792491 148.54087855145042 22.410236911537197 H 0.0 **** 0.06
10866 C 72.8479699053611 1.852463190323192 24.405907033690255 C 0.0 **** -0.24
10867 H 72.13581024969504 1.9603405200032853 23.587484173388503 H 0.0 **** 0.06
10868 H 73.49901763871196 1.000583368330524 24.209857370238836 H 0.0 **** 0.06
10869 H 72.30666551700011 1.6891368356208432 25.337917722351904 H 0.0 **** 0.06
10870 H 73.44734425390521 2.7588007091027293 24.486706302374955 H 0.0 **** 0.06
10871 C 13.933085726705343 95.50877495580241 7.006477487540508 C 0.0 **** -0.24
10872 H 14.251810426859649 95.41259111818886 8.045182036653273 H 0.0 **** 0.06
10873 H 13.231441884239835 96.33914357657052 6.918478783716296 H 0.0 **** 0.06
10874 H 13.446429152480334 94.58571273326926 6.689355415578234 H 0.0 **** 0.06
10875 H 14.801634466406647 95.69725873402105 6.376867486041476 H 0.0 **** 0.06
10876 C 107.38241584477257 84.92466342209741 94.22633724053777 C 0.0 **** -0.24
10877 H 107.63437049535327 85.31295546933819 95.21289538849913 H 0.0 **** 0.06
10878 H 107.8682727519863 83.95922103522156 94.08104803333221 H 0.0 **** 0.06
10879 H 107.72464101255315 85.6235307491069 93.46319947841982 H 0.0 **** 0.06
10880 H 106.30227773084113 84.80370109521623 94.14885431965794 H 0.0 **** 0.06
10881 C 117.11614921650411 83.6141862176425 35.82547746111493 C 0.0 **** -0.24
10882 H 117.1639967093895 82.67640392154877 36.379452960490056 H 0.0 **** 0.06
10883 H 118.11624742759093 84.04185289441551 35.74901398611968 H 0.0 **** 0.06
10884 H 116.46156869917797 84.31182675555038 36.34865229411514 H 0.0 **** 0.06
10885 H 116.72276209794097 83.42668082653304 34.82652243173098 H 0.0 **** 0.06
10886 C 145.08836184766182 55.365535311401516 110.38894473355495 C 0.0 **** -0.24
10887 H 145.50056841194268 55.32984087217778 111.39780772631502 H 0.0 **** 0.06
10888 H 145.849138319807 55.730041272252265 109.69877851009895 H 0.0 **** 0.06
10889 H 144.23028133461594 56.0377339410328 110.37261375232256 H 0.0 **** 0.06
10890 H 144.77383319766147 54.36590407278004 110.08940013679842 H 0.0 **** 0.06
10891 C 109.83422833159358 104.85425864329534 43.44871327322471 C 0.0 **** -0.24
10892 H 108.94165216714404 104.4404212008202 43.91788618059067 H 0.0 **** 0.06
10893 H 109.58633258465815 105.21243181870898 42.44962892985356 H 0.0 **** 0.06
10894 H 110.60058262574594 104.08220131957421 43.37898921299448 H 0.0 **** 0.06
10895 H 110.20827159876072 105.68399434415392 44.049740895083076 H 0.0 **** 0.06
10896 C 148.25005238808694 116.51417436133923 12.744596748825082 C 0.0 **** -0.24
10897 H 148.82367605678365 117.23508778387821 12.16319796996089 H 0.0 **** 0.06
10898 H 147.2759129180928 116.36537472050924 12.278467127631892 H 0.0 **** 0.06
10899 H 148.11548900830354 116.88989130331683 13.758524906368521 H 0.0 **** 0.06
10900 H 148.78554328591338 115.56525008323015 12.777400318001796 H 0.0 **** 0.06
10901 C 93.68690859681283 39.491928259138945 110.74891820434155 C 0.0 **** -0.24
10902 H 93.20309794454266 38.85811544492503 111.49142099558605 H 0.0 **** 0.06
10903 H 93.00660661552973 39.658134281305536 109.91381185160085 H 0.0 **** 0.06
10904 H 94.59264815110123 39.00334574726878 110.38885173326702 H 0.0 **** 0.06
10905 H 93.94692196558657 40.44921515866912 111.20303906952847 H 0.0 **** 0.06
10906 C 57.256923847991914 131.79316960485866 115.28003014977807 C 0.0 **** -0.24
10907 H 57.50364672136601 130.78423676501538 115.61277216333508 H 0.0 **** 0.06
10908 H 56.499739621939 132.21810494187147 115.94020808965212 H 0.0 **** 0.06
10909 H 56.87132320662863 131.75522762127898 114.26065071003569 H 0.0 **** 0.06
10910 H 58.15247130251038 132.41297429705324 115.307575031785 H 0.0 **** 0.06
10911 C 152.16241111485604 60.81301855060593 137.14099177127588 C 0.0 **** -0.24
10912 H 152.77361616832334 61.70466269091162 137.2850785631737 H 0.0 **** 0.06
10913 H 152.05397360185125 60.61605325976856 136.0736736908668 H 0.0 **** 0.06
10914 H 151.17843492441813 60.972143926904494 137.58255245720656 H 0.0 **** 0.06
10915 H 152.64342303202858 59.961352203384365 137.6214829873162 H 0.0 **** 0.06
10916 C 82.83055127269483 42.1589510542197 24.818776996310305 C 0.0 **** -0.24
10917 H 83.74180175529682 41.6326921527984 25.10276991662255 H 0.0 **** 0.06
10918 H 82.62828207087034 42.95041496237161 25.541262943967155 H 0.0 **** 0.06
10919 H 81.99584869835377 41.458648860287866 24.803867821651806 H 0.0 **** 0.06
10920 H 82.95694658778567 42.59516831216942 23.8277469295912 H 0.0 **** 0.06
10921 C 137.18645553670268 144.96175478722117 63.80244204764651 C 0.0 **** -0.24
10922 H 136.8576817494291 144.81814772898485 64.83180042611254 H 0.0 **** 0.06
10923 H 137.32151801612846 143.99074660700083 63.325288909990846 H 0.0 **** 0.06
10924 H 138.13063253892457 145.50545228933595 63.79539640068769 H 0.0 **** 0.06
10925 H 136.43401967762816 145.53365452454253 63.25767523367041 H 0.0 **** 0.06
10926 C 116.71393350564495 24.59044574854898 88.56654643647369 C 0.0 **** -0.24
10927 H 116.60213180072856 23.51500299038507 88.70626445091028 H 0.0 **** 0.06
10928 H 115.76411521387348 25.015760742828327 88.24291359725827 H 0.0 **** 0.06
10929 H 117.47433499577494 24.780685617981355 87.80789218202115 H 0.0 **** 0.06
10930 H 117.01645084185463 25.049912062148167 89.50765420402003 H 0.0 **** 0.06
10931 C 38.50217138188523 72.59365770962576 145.66867971820508 C 0.0 **** -0.24
10932 H 37.94836351698949 71.66191145686349 145.77418593261785 H 0.0 **** 0.06
10933 H 39.48527738915399 72.38709699074911 145.24474914921174 H 0.0 **** 0.06
10934 H 38.619440339956526 73.05991406031345 146.64680335860163 H 0.0 **** 0.06
10935 H 37.955770967762916 73.26808760219373 145.00842234339592 H 0.0 **** 0.06
10936 C 2.870349553762196 31.731486016333946 38.71791210076822 C 0.0 **** -0.24
10937 H 2.6167796843992335 31.715498846211062 37.65819630348517 H 0.0 **** 0.06
10938 H 3.7718821801221907 32.326826097261176 38.86602691617355 H 0.0 **** 0.06
10939 H 3.046165165388146 30.712592572619002 39.06398564597305 H 0.0 **** 0.06
10940 H 2.047104555659388 32.169973428351284 39.28129323053099 H 0.0 **** 0.06
10941 C 138.24077690089212 8.216560521278069 45.477408480711304 C 0.0 **** -0.24
10942 H 137.73878583611094 7.702489920330152 44.657041929029546 H 0.0 **** 0.06
10943 H 139.0031900918175 8.884438673157405 45.0743615763122 H 0.0 **** 0.06
10944 H 138.7090788646692 7.482928752395992 46.13349578466892 H 0.0 **** 0.06
10945 H 137.51099839952798 8.796197175966 46.04277167908283 H 0.0 **** 0.06
10946 C 27.248931621911993 153.65801653566677 57.93543503187729 C 0.0 **** -0.24
10947 H 28.209732821964167 154.08165384709994 58.22728829757892 H 0.0 **** 0.06
10948 H 27.203822328762385 152.61393110328174 58.24653894151284 H 0.0 **** 0.06
10949 H 27.13900471792749 153.71992679576036 56.852532881994094 H 0.0 **** 0.06
10950 H 26.445574767279993 154.21664722889315 58.41494138920545 H 0.0 **** 0.06
10951 C 127.32269857515223 161.2863053537139 60.99595419085702 C 0.0 **** -0.24
10952 H 127.04297861412545 160.23295728000102 61.0232936845337 H 0.0 **** 0.06
10953 H 127.90049507806401 161.53135165812225 61.88786304546622 H 0.0 **** 0.06
10954 H 126.42183431434037 161.90010487734816 60.96581090193395 H 0.0 **** 0.06
10955 H 127.92350104928636 161.4790077347588 60.1081980429304 H 0.0 **** 0.06
10956 C 151.57940560640594 1.6437236127788637 107.44903507658651 C 0.0 **** -0.24
10957 H 150.9914989824492 2.50976257308389 107.1465782242156 H 0.0 **** 0.06
10958 H 151.61257329383744 1.588545457331982 108.53721021719596 H 0.0 **** 0.06
10959 H 152.59251259519135 1.7367455258838689 107.0582794015188 H 0.0 **** 0.06
10960 H 151.12009702309103 0.7372213439085513 107.05295280900481 H 0.0 **** 0.06
10961 C 72.40053951394756 60.717477294579396 116.0278122363062 C 0.0 **** -0.24
10962 H 71.82266462467592 60.31937029148423 116.86201921854453 H 0.0 **** 0.06
10963 H 71.77754509420518 61.39611573585938 115.44548186169288 H 0.0 **** 0.06
10964 H 72.73525902628963 59.896537859491104 115.39326266072678 H 0.0 **** 0.06
10965 H 73.26700671964721 61.25626579759654 116.41101111452116 H 0.0 **** 0.06
10966 C 83.86779175364222 149.38411887275407 138.6337485050874 C 0.0 **** -0.24
10967 H 83.24069551148716 148.6415779907801 138.14049178486164 H 0.0 **** 0.06
10968 H 84.89474924690938 149.28198882902188 138.28382622876995 H 0.0 **** 0.06
10969 H 83.83308378560127 149.2309169589086 139.7116818711168 H 0.0 **** 0.06
10970 H 83.50075600537627 150.38284202820043 138.3963992137044 H 0.0 **** 0.06
10971 C 78.09520697736639 89.56740676433029 25.239219562060157 C 0.0 **** -0.24
10972 H 77.6259031518556 89.32760133292652 26.193594826254213 H 0.0 **** 0.06
10973 H 77.91666189036562 90.61576649445965 25.00101718754925 H 0.0 **** 0.06
10974 H 77.67031651736522 88.93854304847576 24.457248743545875 H 0.0 **** 0.06
10975 H 79.16859285439222 89.38766569633214 25.307379622184726 H 0.0 **** 0.06
10976 C 116.65276257639349 70.34181592232063 90.34601462608644 C 0.0 **** -0.24
10977 H 115.8439096532341 71.0678051105847 90.27093155156675 H 0.0 **** 0.06
10978 H 116.94815431950727 70.23481669139755 91.38996709236997 H 0.0 **** 0.06
10979 H 117.50556983173274 70.68665164140118 89.76037395116118 H 0.0 **** 0.06
10980 H 116.31523646025946 69.37910600696014 89.96345147428049 H 0.0 **** 0.06
10981 C 88.26110219598107 96.43546265069592 87.52639419554956 C 0.0 **** -0.24
10982 H 88.47794511476962 95.75192862746458 88.34757703634116 H 0.0 **** 0.06
10983 H 87.66207191347439 97.26810548270456 87.89655567720519 H 0.0 **** 0.06
10984 H 87.70936092212082 95.90732629801983 86.74988510892726 H 0.0 **** 0.06
10985 H 89.1961476529417 96.81541010726028 87.11470647260238 H 0.0 **** 0.06
10986 C 81.45843725080852 105.49853927641794 82.71586341774417 C 0.0 **** -0.24
10987 H 82.19377255151015 106.2663636932275 82.95591655818384 H 0.0 **** 0.06
10988 H 81.35371647639512 104.81939419723545 83.5622140478975 H 0.0 **** 0.06
10989 H 81.78839640491738 104.93940193452059 81.84051021199193 H 0.0 **** 0.06
10990 H 80.49810922382741 105.96931628945634 82.50616856237298 H 0.0 **** 0.06
10991 C 97.92469180289052 82.67235368385424 67.19920749786144 C 0.0 **** -0.24
10992 H 98.49771874572832 81.74557644950724 67.2254740635168 H 0.0 **** 0.06
10993 H 96.95103220599427 82.51137627848166 67.66223031232943 H 0.0 **** 0.06
10994 H 97.78771320605713 82.98488099410635 66.16396337099292 H 0.0 **** 0.06
10995 H 98.46268653430243 83.44830226011221 67.74400777238156 H 0.0 **** 0.06
10996 C 13.130355327994558 34.791779714242296 43.97440727848168 C 0.0 **** -0.24
10997 H 13.443001557980296 35.378943489715994 43.11105573652672 H 0.0 **** 0.06
10998 H 13.395985429023469 33.74607145816901 43.81785133710426 H 0.0 **** 0.06
10999 H 12.050931926456606 34.87836592905671 44.09892958654113 H 0.0 **** 0.06
11000 H 13.630616968226597 35.164975971259025 44.8672071757173 H 0.0 **** 0.06
11001 C 143.5293518121988 49.11434820676379 4.6673026429687 C 0.0 **** -0.24
11002 H 144.25062529273822 49.68315944081871 5.253007486599685 H 0.0 **** 0.06
11003 H 143.92536696305672 48.11671572865475 4.473582894864656 H 0.0 **** 0.06
11004 H 143.34789085717668 49.62356559752391 3.721079407911546 H 0.0 **** 0.06
11005 H 142.5938050299466 49.033001039221574 5.221411600297884 H 0.0 **** 0.06
11006 C 152.84052332972118 155.1465306309869 117.73239051851664 C 0.0 **** -0.24
11007 H 152.32740866531884 156.1084453291893 117.7561884505931 H 0.0 **** 0.06
11008 H 152.12121993997607 154.34722499588253 117.91285939075013 H 0.0 **** 0.06
11009 H 153.60838735204342 155.12699633799838 118.50542874196714 H 0.0 **** 0.06
11010 H 153.30324654469848 155.00647983067626 116.75579549685887 H 0.0 **** 0.06
11011 C 133.57833998209247 61.014559596297914 59.67986485328521 C 0.0 **** -0.24
11012 H 134.22162508209368 61.89266524884977 59.75125571901367 H 0.0 **** 0.06
11013 H 134.03095231565743 60.28657443834956 59.00700786642875 H 0.0 **** 0.06
11014 H 132.6031241778983 61.31066014637685 59.29404956135687 H 0.0 **** 0.06
11015 H 133.4587223748419 60.572057661450344 60.66857335849812 H 0.0 **** 0.06
11016 C 123.2482506906673 99.2376380094982 58.79946059974091 C 0.0 **** -0.24
11017 H 123.90434627769085 98.86544756741381 59.5868123227925 H 0.0 **** 0.06
11018 H 122.28031940223988 99.49993062368685 59.22834812290826 H 0.0 **** 0.06
11019 H 123.11414707287915 98.46431104890132 58.04328768368522 H 0.0 **** 0.06
11020 H 123.69491391352204 100.12039002556628 58.34274879068846 H 0.0 **** 0.06
11021 C 108.3660644898008 69.8814723852405 51.488613457129134 C 0.0 **** -0.24
11022 H 107.47972029821412 70.51463304694217 51.44548093844196 H 0.0 **** 0.06
11023 H 108.29271872458389 69.10254401659182 50.729782879175985 H 0.0 **** 0.06
11024 H 108.43598293534774 69.42304639868026 52.475567312418235 H 0.0 **** 0.06
11025 H 109.25402301213794 70.48618220195232 51.305956570720895 H 0.0 **** 0.06
11026 C 83.18273737827494 81.62200012712486 82.74555466257897 C 0.0 **** -0.24
11027 H 82.93358972301097 80.57797229098969 82.93539980839734 H 0.0 **** 0.06
11028 H 84.19753436363982 81.68727102035055 82.35364570410607 H 0.0 **** 0.06
11029 H 83.11419848300717 82.18699996572786 83.67465553407294 H 0.0 **** 0.06
11030 H 82.4842505771764 82.03381899651589 82.01668754009722 H 0.0 **** 0.06
11031 C 135.41895008081298 90.97845804675 94.33086769918287 C 0.0 **** -0.24
11032 H 135.86179311759008 91.74002233043268 94.97292824884812 H 0.0 **** 0.06
11033 H 136.04859571711933 90.08824030651425 94.33716294151856 H 0.0 **** 0.06
11034 H 135.33947986215628 91.362046200088 93.3139166408368 H 0.0 **** 0.06
11035 H 134.42630315697647 90.7240196967179 94.7018327304956 H 0.0 **** 0.06
11036 C 130.25283466165183 16.546671780897718 110.63054241324676 C 0.0 **** -0.24
11037 H 130.990127820389 15.746090337901848 110.56748672864069 H 0.0 **** 0.06
11038 H 129.8578125401933 16.597264575081375 111.64525160937512 H 0.0 **** 0.06
11039 H 129.43878514790055 16.34660714813736 109.93355288699905 H 0.0 **** 0.06
11040 H 130.7242732945758 17.495027660459485 110.3758199188535 H 0.0 **** 0.06
11041 C 116.15264772241312 140.72862015623517 57.47269896221263 C 0.0 **** -0.24
11042 H 115.32923817954867 140.19006863347954 57.00232796628573 H 0.0 **** 0.06
11043 H 116.69781682946666 140.053730387457 58.13237486236913 H 0.0 **** 0.06
11044 H 115.7559293372216 141.56318727507826 58.0524524962573 H 0.0 **** 0.06
11045 H 116.82474283363325 141.10854091323077 56.70280139976647 H 0.0 **** 0.06
11046 C 123.81587636223014 154.9523040131882 24.285554461304685 C 0.0 **** -0.24
11047 H 124.18530178214124 153.92725987771973 24.248134545193295 H 0.0 **** 0.06
11048 H 124.28154979837194 155.47678432745982 25.11912417435346 H 0.0 **** 0.06
11049 H 122.73390532206349 154.94314934583122 24.419981905502738 H 0.0 **** 0.06
11050 H 124.06049735463856 155.46029134530653 23.352540900029396 H 0.0 **** 0.06
11051 C 6.989052277409684 94.88144580585424 55.580391470333936 C 0.0 **** -0.24
11052 H 6.397564637254646 93.97879405129561 55.733793033188846 H 0.0 **** 0.06
11053 H 6.857812701788049 95.23110262460455 54.55527040097368 H 0.0 **** 0.06
11054 H 8.041637769344277 94.65902285779083 55.75654958238796 H 0.0 **** 0.06
11055 H 6.659684931751343 95.65415201287476 56.27342181393256 H 0.0 **** 0.06
11056 C 22.9365688525684 14.86020541568513 3.0913924428533335 C 0.0 **** -0.24
11057 H 22.017465566396993 15.31704143205917 2.7253270937237843 H 0.0 **** 0.06
11058 H 23.434147583809732 14.336635781860252 2.274552724272894 H 0.0 **** 0.06
11059 H 22.699862832739086 14.153029012903033 3.8858177857314047 H 0.0 **** 0.06
11060 H 23.596941650339318 15.636039972042 3.4811788210736054 H 0.0 **** 0.06
11061 C 12.379471905993228 37.1772896619953 54.970955100450226 C 0.0 **** -0.24
11062 H 13.008800059075384 36.324217346087664 55.22210150797871 H 0.0 **** 0.06
11063 H 12.743265197224332 37.63938718724668 54.05169166731048 H 0.0 **** 0.06
11064 H 12.413307976588499 37.9055801146481 55.781217398749135 H 0.0 **** 0.06
11065 H 11.352715370574856 36.841705881045925 54.82708925333418 H 0.0 **** 0.06
11066 C 16.622716829700096 135.134033094215 159.5271151127103 C 0.0 **** -0.24
11067 H 17.686862178924116 135.0966518010344 159.29219555766431 H 0.0 **** 0.06
11068 H 16.48343635035144 135.00543409476342 160.60052281833168 H 0.0 **** 0.06
11069 H 16.105868871493556 134.33544305885016 158.99534543890252 H 0.0 **** 0.06
11070 H 16.216669773424258 136.09759760300562 159.22006777676992 H 0.0 **** 0.06
11071 C 10.42527451547437 58.896952448802125 130.99953149695864 C 0.0 **** -0.24
11072 H 10.843344561395838 58.29907809291831 131.80915210916493 H 0.0 **** 0.06
11073 H 11.158081192740667 58.987074281272044 130.19844894970737 H 0.0 **** 0.06
11074 H 10.172735296697795 59.88910837561849 131.37553077715336 H 0.0 **** 0.06
11075 H 9.526318519026518 58.41340503149422 130.61761807956083 H 0.0 **** 0.06
11076 C 8.35742983066747 89.51538178003992 25.388964745629764 C 0.0 **** -0.24
11077 H 8.476901302325246 90.55176332872705 25.70373083157144 H 0.0 **** 0.06
11078 H 8.05298199156681 88.9096954594294 26.243176946444947 H 0.0 **** 0.06
11079 H 9.304812875449237 89.14298848708263 24.999346400242374 H 0.0 **** 0.06
11080 H 7.595799732877161 89.45719162026758 24.61192528083965 H 0.0 **** 0.06
11081 C 65.9657575585021 91.9496629888485 153.405886642253 C 0.0 **** -0.24
11082 H 66.05550799998827 92.32410223458959 152.38662811930203 H 0.0 **** 0.06
11083 H 65.8355998440424 92.78747117914668 154.09186426694853 H 0.0 **** 0.06
11084 H 66.8680667728404 91.39908860772525 153.67185052387308 H 0.0 **** 0.06
11085 H 65.10282065588808 91.28657271822374 153.47458948201836 H 0.0 **** 0.06
11086 C 82.58396188224148 50.015286589805626 100.70038494921718 C 0.0 **** -0.24
11087 H 83.51982147180175 50.234445511015664 101.2157577202841 H 0.0 **** 0.06
11088 H 82.37170822781155 48.948851753055976 100.77286919277304 H 0.0 **** 0.06
11089 H 82.672269425948 50.29850980713337 99.65173952306893 H 0.0 **** 0.06
11090 H 81.7736045487535 50.580077358613536 101.16259947937334 H 0.0 **** 0.06
11091 C 153.32847039720815 87.47129702521976 53.54867009431793 C 0.0 **** -0.24
11092 H 153.48479078232472 86.93078341955606 54.48146470878808 H 0.0 **** 0.06
11093 H 152.27554943718008 87.42006812739754 53.2714248801753 H 0.0 **** 0.06
11094 H 153.9345632448475 87.02154216154732 52.76243675162925 H 0.0 **** 0.06
11095 H 153.61913256024621 88.5135830532544 53.67994917850815 H 0.0 **** 0.06
11096 C 23.416150894718015 135.22162271965092 154.1991930152585 C 0.0 **** -0.24
11097 H 23.536724533231435 135.83357044509927 153.30466919345255 H 0.0 **** 0.06
11098 H 22.507521341928935 135.52069230689457 154.72308863118496 H 0.0 **** 0.06
11099 H 24.275710005356338 135.3617659530118 154.85320739466488 H 0.0 **** 0.06
11100 H 23.34257506709595 134.17194304309214 153.91457742453437 H 0.0 **** 0.06
11101 C 54.99453132100358 146.86999417119566 27.488644590627047 C 0.0 **** -0.24
11102 H 55.5403098982171 145.9321457029425 27.59163900473618 H 0.0 **** 0.06
11103 H 54.314084300846375 146.98705335591444 28.332314471350855 H 0.0 **** 0.06
11104 H 54.42465170371996 146.85757462007405 26.56003605837776 H 0.0 **** 0.06
11105 H 55.69981565315763 147.70089329481732 27.472046010265643 H 0.0 **** 0.06
11106 C 68.05701161084687 26.833641874292873 138.45553169723289 C 0.0 **** -0.24
11107 H 68.55360808061073 27.65518818120328 138.97225646078613 H 0.0 **** 0.06
11108 H 68.0790082450875 27.013017865403434 137.38107358815805 H 0.0 **** 0.06
11109 H 67.0226843579594 26.766615993072477 138.7923632744214 H 0.0 **** 0.06
11110 H 68.57314244822439 25.89971560120368 138.68053739781448 H 0.0 **** 0.06
11111 C 123.4855525087271 0.07975103844324849 2.5414373304217293 C 0.0 **** -0.24
11112 H 123.75643924887362 -0.7015733818764716 3.252728009979535 H 0.0 **** 0.06
11113 H 122.86986226083437 0.8280024871985461 3.041468500113524 H 0.0 **** 0.06
11114 H 122.92703977527395 -0.3595302853083808 1.7149869110191958 H 0.0 **** 0.06
11115 H 124.39115065738068 0.5504174246343609 2.1575375655247626 H 0.0 **** 0.06
11116 C 109.49844524112711 76.67520411023571 112.34676267473691 C 0.0 **** -0.24
11117 H 109.52992424923059 77.73291814825109 112.08555023607747 H 0.0 **** 0.06
11118 H 110.42913197947871 76.19800815299173 112.04018142477906 H 0.0 **** 0.06
11119 H 108.66064272695456 76.20043667716368 111.83709154856373 H 0.0 **** 0.06
11120 H 109.3747293880532 76.57181190190552 113.42436476655672 H 0.0 **** 0.06
11121 C 160.8218318091745 15.336607512111527 44.19276529538212 C 0.0 **** -0.24
11122 H 161.61850593685895 15.647241414779643 44.86913855450112 H 0.0 **** 0.06
11123 H 161.0837716865951 14.382898096685182 43.73580722976614 H 0.0 **** 0.06
11124 H 160.69227332974634 16.089403047078065 43.41502925620959 H 0.0 **** 0.06
11125 H 159.89282889170653 15.2290854418153 44.75335914381655 H 0.0 **** 0.06
11126 C 85.78096781332312 46.27624996367658 11.28617887410919 C 0.0 **** -0.24
11127 H 86.3304404187731 45.393574319766174 10.960035656488053 H 0.0 **** 0.06
11128 H 86.29918903423368 47.172926356962364 10.945990581986273 H 0.0 **** 0.06
11129 H 85.71702306094039 46.28327687238101 12.37479753144872 H 0.0 **** 0.06
11130 H 84.77590396042663 46.25534147365343 10.864398890914444 H 0.0 **** 0.06
11131 C 129.05434213234167 131.9348889725925 107.42453094010932 C 0.0 **** -0.24
11132 H 128.05221635118534 131.62997054995688 107.12151021659636 H 0.0 **** 0.06
11133 H 129.09894385314334 133.02287535701348 107.4836004131079 H 0.0 **** 0.06
11134 H 129.77833054961957 131.58034178533677 106.69126570663408 H 0.0 **** 0.06
11135 H 129.28452970096214 131.50807387679373 108.39977724625336 H 0.0 **** 0.06
11136 C 56.81231118064929 77.20127458501162 118.14564879592757 C 0.0 **** -0.24
11137 H 56.47155283511468 78.04723716006993 118.74241334016597 H 0.0 **** 0.06
11138 H 56.03960827166921 76.9285235684842 117.42651461590452 H 0.0 **** 0.06
11139 H 57.01392819855262 76.35354916946238 118.80098388077963 H 0.0 **** 0.06
11140 H 57.724010509803406 77.47497845399795 117.61450626812456 H 0.0 **** 0.06
11141 C 142.2431118904753 114.87047475245978 87.88508738595328 C 0.0 **** -0.24
11142 H 142.12864659797333 114.35932114807409 86.92941352260327 H 0.0 **** 0.06
11143 H 143.29032958952388 115.13635885098915 88.03096270618846 H 0.0 **** 0.06
11144 H 141.9185955537228 114.21134622632673 88.69009706295255 H 0.0 **** 0.06
11145 H 141.63421968543562 115.77450308998942 87.88867922537518 H 0.0 **** 0.06
11146 C 119.13768534569252 62.20574420589283 72.07858770385293 C 0.0 **** -0.24
11147 H 119.76423930817515 62.59088717405632 71.27453866251074 H 0.0 **** 0.06
11148 H 118.97275589236804 62.99057989147646 72.81758575102363 H 0.0 **** 0.06
11149 H 119.63459543340628 61.35871564505943 72.55263819473834 H 0.0 **** 0.06
11150 H 118.17953898546176 61.88348271631328 71.67020068402726 H 0.0 **** 0.06
11151 C 114.56448944230715 78.28984852675809 67.07905729427532 C 0.0 **** -0.24
11152 H 113.93233213835708 78.85437652344875 67.76486933597644 H 0.0 **** 0.06
11153 H 114.77456790272925 77.30807218588822 67.50404097487689 H 0.0 **** 0.06
11154 H 115.49986166201529 78.8265098910467 66.92158274014567 H 0.0 **** 0.06
11155 H 114.04844968245976 78.16980318532677 66.12597651732109 H 0.0 **** 0.06
11156 C 19.520910582556724 137.47946475095222 9.096948094131221 C 0.0 **** -0.24
11157 H 19.50458211296251 136.786764802496 9.939589821109621 H 0.0 **** 0.06
11158 H 18.50391824008875 137.63087224337488 8.733761870992907 H 0.0 **** 0.06
11159 H 20.13395287933895 137.06457000760423 8.298014871394173 H 0.0 **** 0.06
11160 H 19.93785204689783 138.43303591650923 9.419257992885036 H 0.0 **** 0.06
11161 C 87.43283846636334 115.07370832375994 26.905109358966598 C 0.0 **** -0.24
11162 H 87.13089532359555 114.30106103330024 26.19883651865257 H 0.0 **** 0.06
11163 H 88.20049251106718 114.6776737178977 27.570226436653996 H 0.0 **** 0.06
11164 H 86.56948806385435 115.3864439157075 27.492773719584648 H 0.0 **** 0.06
11165 H 87.83035274904276 115.9289313447614 26.35927988675229 H 0.0 **** 0.06
11166 C 120.30489436782028 97.00722142736186 100.93563276235241 C 0.0 **** -0.24
11167 H 120.39820064256634 97.89502256621603 100.31111302909554 H 0.0 **** 0.06
11168 H 121.04909994503709 97.04369864001399 101.73162921224818 H 0.0 **** 0.06
11169 H 120.46634075298482 96.11702459928784 100.32789719441362 H 0.0 **** 0.06
11170 H 119.30660457460982 96.9733864381812 101.37259334990836 H 0.0 **** 0.06
11171 C 12.401910379555062 40.62769239128248 148.8826057866608 C 0.0 **** -0.24
11172 H 11.843768466781285 40.3749061643868 149.78386300416338 H 0.0 **** 0.06
11173 H 12.860241892216834 41.610354473067645 149.0036073601321 H 0.0 **** 0.06
11174 H 11.723700810374737 40.64538354696509 148.02925669586045 H 0.0 **** 0.06
11175 H 13.17871937913992 39.88209459427999 148.71450598238482 H 0.0 **** 0.06
11176 C 108.22315282045099 119.04209148132531 47.926021540963234 C 0.0 **** -0.24
11177 H 108.93772688282183 119.00059297859855 47.10416350571046 H 0.0 **** 0.06
11178 H 107.21010842254736 118.96708458007794 47.530773683714585 H 0.0 **** 0.06
11179 H 108.33692487510586 119.98681321732352 48.45776172159276 H 0.0 **** 0.06
11180 H 108.40999294858443 118.21488255702064 48.61075653808052 H 0.0 **** 0.06
11181 C 50.02813460188975 26.447070208835413 116.55144146441762 C 0.0 **** -0.24
11182 H 49.63161169789521 25.776984095942353 115.78892521476271 H 0.0 **** 0.06
11183 H 50.99761754415479 26.078456631209647 116.88963042432559 H 0.0 **** 0.06
11184 H 49.33928021353485 26.485610534845605 117.39422499304615 H 0.0 **** 0.06
11185 H 50.14582290979888 27.446545278712435 116.1314641610204 H 0.0 **** 0.06
11186 C 133.11305263896227 87.5722485102726 119.01508591448717 C 0.0 **** -0.24
11187 H 133.3193130522329 86.78096332148795 118.29389019288269 H 0.0 **** 0.06
11188 H 133.6940157296316 87.39791816253211 119.92107249921989 H 0.0 **** 0.06
11189 H 132.0512517196311 87.57499728353957 119.25798724710916 H 0.0 **** 0.06
11190 H 133.39046353465574 88.53513387660837 118.58495006044993 H 0.0 **** 0.06
11191 C 123.93981879527138 112.6630970587882 70.9318392599307 C 0.0 **** -0.24
11192 H 124.79606391898727 112.00443572357474 70.78538995250196 H 0.0 **** 0.06
11193 H 124.1341628440922 113.3291668865566 71.77248260348522 H 0.0 **** 0.06
11194 H 123.05295992457695 112.06462235882955 71.138692381918 H 0.0 **** 0.06
11195 H 123.7774950028421 113.25349740784529 70.02918632635593 H 0.0 **** 0.06
11196 C 92.49878763186973 67.23203062897753 134.02117477912356 C 0.0 **** -0.24
11197 H 93.51052728157367 67.23265854069771 134.42685488169064 H 0.0 **** 0.06
11198 H 92.1673608413912 68.2592937068754 133.86782640728967 H 0.0 **** 0.06
11199 H 91.82732937834774 66.73370110094457 134.72037814748018 H 0.0 **** 0.06
11200 H 92.49021942699062 66.70068367950962 133.06878520457585 H 0.0 **** 0.06
11201 C 59.356012948118206 130.55408295049008 146.51363402138324 C 0.0 **** -0.24
11202 H 59.68849762740558 130.87557893079602 147.49982268459695 H 0.0 **** 0.06
11203 H 59.025470940025855 129.51630892243827 146.56070751666547 H 0.0 **** 0.06
11204 H 60.181239932307506 130.64119109430902 145.80558776122706 H 0.0 **** 0.06
11205 H 58.52982546582331 131.18485224411575 146.186302105545 H 0.0 **** 0.06
11206 C 29.294851206259352 35.91790183618183 17.315668797396313 C 0.0 **** -0.24
11207 H 28.429254418402024 36.53266414966076 17.068909088282965 H 0.0 **** 0.06
11208 H 28.96169045967713 34.924686734762815 17.61774255300878 H 0.0 **** 0.06
11209 H 29.846700667648804 36.38030786190579 18.133827513258552 H 0.0 **** 0.06
11210 H 29.94253688620654 35.83426056833734 16.442741958518468 H 0.0 **** 0.06
11211 C 61.437078613141296 78.24554957538629 16.67927313830466 C 0.0 **** -0.24
11212 H 61.9479752511711 78.49845301792038 17.608238867169256 H 0.0 **** 0.06
11213 H 61.86054789245114 78.82966653898998 15.861303063523515 H 0.0 **** 0.06
11214 H 60.37521077669922 78.47225716684173 16.775757473012384 H 0.0 **** 0.06
11215 H 61.565396526144184 77.18326668133994 16.472289052965323 H 0.0 **** 0.06
11216 C 115.20725258509663 56.24940388248177 0.5937318597037233 C 0.0 **** -0.24
11217 H 115.52458368730433 57.28894364346155 0.5191672796691478 H 0.0 **** 0.06
11218 H 114.12540166036806 56.20839706553738 0.7199414901190835 H 0.0 **** 0.06
11219 H 115.69172375282687 55.78226622309893 1.451572737968263 H 0.0 **** 0.06
11220 H 115.48730123988727 55.71800859782951 -0.3157540689415441 H 0.0 **** 0.06
11221 C 119.45189082186502 47.328244674325134 136.10551755750163 C 0.0 **** -0.24
11222 H 118.48429958316746 46.886766020752376 136.34465905507938 H 0.0 **** 0.06
11223 H 119.32321304122382 48.38996671420473 135.8940578508716 H 0.0 **** 0.06
11224 H 119.87068493983503 46.830629809251775 135.23012060426208 H 0.0 **** 0.06
11225 H 120.12640781013482 47.204827338309784 136.95195645441365 H 0.0 **** 0.06
11226 C 125.63929911769387 53.59977451656653 95.61845261436186 C 0.0 **** -0.24
11227 H 124.82075208659128 52.89187489308449 95.74963852961183 H 0.0 **** 0.06
11228 H 126.40130827851536 53.157711080658316 94.97638577969734 H 0.0 **** 0.06
11229 H 126.07416721156463 53.83617656956204 96.58933399292047 H 0.0 **** 0.06
11230 H 125.26008748414756 54.51173079011889 95.15716837178864 H 0.0 **** 0.06
11231 C 54.94603206375575 51.51115320684826 38.9084094273112 C 0.0 **** -0.24
11232 H 55.4153703179544 51.84115394893091 39.8351305104417 H 0.0 **** 0.06
11233 H 54.112420907978674 52.17112005590323 38.66883261762989 H 0.0 **** 0.06
11234 H 54.580608596297964 50.49148226950932 39.030829725228415 H 0.0 **** 0.06
11235 H 55.67797498945964 51.540100899453805 38.101740092256705 H 0.0 **** 0.06
11236 C 46.554976609737835 141.48129654296636 115.63172156573677 C 0.0 **** -0.24
11237 H 45.7333064237874 142.10533532170422 115.98480030783736 H 0.0 **** 0.06
11238 H 46.31954683360675 140.43243015960059 115.81603659238982 H 0.0 **** 0.06
11239 H 47.4679507256963 141.7475597507568 116.16451517422786 H 0.0 **** 0.06
11240 H 46.69785037534335 141.63981338530698 114.56338626404317 H 0.0 **** 0.06
11241 C 98.88955642961312 134.02698010784783 101.47029833583733 C 0.0 **** -0.24
11242 H 98.3037001919115 133.95510284331777 100.55434311786235 H 0.0 **** 0.06
11243 H 99.9508444649704 133.95187779856553 101.23017076290623 H 0.0 **** 0.06
11244 H 98.61101600269086 133.21544833368986 102.14361646939409 H 0.0 **** 0.06
11245 H 98.69286484704065 134.98330925461994 101.95350822741938 H 0.0 **** 0.06
11246 C 50.2878264737829 121.3402011767771 47.70861868755317 C 0.0 **** -0.24
11247 H 49.49308444004906 120.92919264398697 48.330733568931535 H 0.0 **** 0.06
11248 H 50.49517507442545 120.65592319168087 46.88588419002316 H 0.0 **** 0.06
11249 H 51.18857848881591 121.4719067332068 48.308893072917456 H 0.0 **** 0.06
11250 H 49.974213461248524 122.3049847344019 47.30966326652957 H 0.0 **** 0.06
11251 C 155.65537565762125 7.77309607469968 11.404041553477974 C 0.0 **** -0.24
11252 H 156.47912542931945 7.623550259089512 10.704223508446468 H 0.0 **** 0.06
11253 H 155.3196627201954 6.806176089180752 11.779843953915233 H 0.0 **** 0.06
11254 H 154.83183979580167 8.272525171694014 10.893364427272097 H 0.0 **** 0.06
11255 H 155.9938984479324 8.389305633712496 12.23669150460509 H 0.0 **** 0.06
11256 C 40.859661569897355 106.71013866002451 149.30441606797618 C 0.0 **** -0.24
11257 H 40.854452649015656 107.79062520873958 149.16115568242336 H 0.0 **** 0.06
11258 H 40.910556701764136 106.2163145891914 148.3343540547357 H 0.0 **** 0.06
11259 H 39.94798631821365 106.4080257235131 149.8196653853381 H 0.0 **** 0.06
11260 H 41.726590439094764 106.4273545720853 149.90249330819745 H 0.0 **** 0.06
11261 C 104.70095095582357 50.411842655372126 87.55451772982589 C 0.0 **** -0.24
11262 H 104.66481587069453 49.33468453044192 87.72232277942629 H 0.0 **** 0.06
11263 H 103.78954232550333 50.86986272321734 87.93872702280298 H 0.0 **** 0.06
11264 H 104.78538583190175 50.60947141784008 86.48636490802494 H 0.0 **** 0.06
11265 H 105.56537352627774 50.82984911949693 88.07058756718332 H 0.0 **** 0.06
11266 C 129.94187025085222 72.2081779844863 27.873029604413496 C 0.0 **** -0.24
11267 H 129.19233622907703 72.86133968316167 28.320498506150855 H 0.0 **** 0.06
11268 H 129.9945981727898 72.39904641843843 26.80037965499799 H 0.0 **** 0.06
11269 H 129.6657766605357 71.16825785639683 28.04429629422657 H 0.0 **** 0.06
11270 H 130.91287224158526 72.40543873745366 28.326222892345754 H 0.0 **** 0.06
11271 C 106.2506694143458 54.87394351195843 146.88722765925561 C 0.0 **** -0.24
11272 H 106.00915281950759 55.931949748484655 146.99155602824274 H 0.0 **** 0.06
11273 H 105.55193950047575 54.4090343224792 146.19136716784502 H 0.0 **** 0.06
11274 H 106.17336139525855 54.38688458147277 147.85939170429836 H 0.0 **** 0.06
11275 H 107.26643175441174 54.76944360501227 146.50724547150767 H 0.0 **** 0.06
11276 C 22.48199677911137 23.083408925681795 6.880392859130957 C 0.0 **** -0.24
11277 H 22.33678656269123 23.372510040470786 5.840000931269806 H 0.0 **** 0.06
11278 H 23.09298387207491 22.181717839483895 6.924921728786735 H 0.0 **** 0.06
11279 H 21.513069821880777 22.88825168855442 7.3416304409089435 H 0.0 **** 0.06
11280 H 22.983467622339646 23.889682008297655 7.415103571866396 H 0.0 **** 0.06
11281 C 74.75222695896117 23.427844666402734 32.13233000505812 C 0.0 **** -0.24
11282 H 74.45963156713044 23.665830920933786 33.154675502066226 H 0.0 **** 0.06
11283 H 74.66263843091535 24.31909778911802 31.511969145759622 H 0.0 **** 0.06
11284 H 74.10185018184922 22.64535077356058 31.74164956556379 H 0.0 **** 0.06
11285 H 75.78555458797936 23.079516186820968 32.12197767986504 H 0.0 **** 0.06
11286 C 84.6598289033443 153.84185511396646 130.96092853319897 C 0.0 **** -0.24
11287 H 85.36264621666201 153.98224182106298 131.78225140295996 H 0.0 **** 0.06
11288 H 84.63409598844324 154.7417614192968 130.3465741490907 H 0.0 **** 0.06
11289 H 83.66622069759804 153.64736321539397 131.36390430394448 H 0.0 **** 0.06
11290 H 84.97736543537764 152.99436410158137 130.35243989100482 H 0.0 **** 0.06
11291 C 114.12358907439946 84.633827408945 6.9040560507272914 C 0.0 **** -0.24
11292 H 115.18405947137143 84.69840689998257 6.661781695590662 H 0.0 **** 0.06
11293 H 113.60647012282297 84.07466556657623 6.12459350140665 H 0.0 **** 0.06
11294 H 113.70495418568319 85.63780679944352 6.971791275911414 H 0.0 **** 0.06
11295 H 114.00084750912 84.12377010585102 7.8599718099251845 H 0.0 **** 0.06
11296 C 138.88379582603022 108.58300859454368 78.68634760260505 C 0.0 **** -0.24
11297 H 138.1491193282046 108.09886884608841 79.32976737557698 H 0.0 **** 0.06
11298 H 138.40785667236938 108.88281996533738 77.75312689139561 H 0.0 **** 0.06
11299 H 139.69523150198552 107.88751146760455 78.47364658122586 H 0.0 **** 0.06
11300 H 139.28267297575462 109.4635052425316 79.19070912770981 H 0.0 **** 0.06
11301 C 5.968771409524834 113.50316210307795 104.13998112304358 C 0.0 **** -0.24
11302 H 5.672555512814512 114.06107771521644 105.02871966240426 H 0.0 **** 0.06
11303 H 7.039148681869278 113.62448297242571 103.97583614043387 H 0.0 **** 0.06
11304 H 5.422441026541605 113.88131220375328 103.27552494155404 H 0.0 **** 0.06
11305 H 5.739161339773375 112.44701125293167 104.28191934954441 H 0.0 **** 0.06
11306 C 151.13970550039008 46.80881053523173 24.293946542591357 C 0.0 **** -0.24
11307 H 151.30725703037828 46.08595845629361 23.494666708639613 H 0.0 **** 0.06
11308 H 151.23945672835916 47.819277434599755 23.895921124539427 H 0.0 **** 0.06
11309 H 151.87462549926002 46.65351762627131 25.08305903645598 H 0.0 **** 0.06
11310 H 150.13661930903248 46.675618284763345 24.69889933884815 H 0.0 **** 0.06
11311 C 76.58420733230412 121.165594414977 58.696835517435915 C 0.0 **** -0.24
11312 H 77.42755855174921 120.625537081192 59.12684324291449 H 0.0 **** 0.06
11313 H 76.57005034175471 122.1838957793824 59.08532974606791 H 0.0 **** 0.06
11314 H 75.65567364291793 120.6609929753582 58.962610630167305 H 0.0 **** 0.06
11315 H 76.68639952914526 121.19230445790222 57.611699488284 H 0.0 **** 0.06
11316 C 91.73758014760412 5.720700760393619 15.926984136805515 C 0.0 **** -0.24
11317 H 91.3915817582901 6.749562891923766 16.031045248383975 H 0.0 **** 0.06
11318 H 91.48626090348932 5.352097888168707 14.93291000013727 H 0.0 **** 0.06
11319 H 91.25350617614885 5.0969737538738755 16.679583577215453 H 0.0 **** 0.06
11320 H 92.81812824319019 5.685339960409429 16.066376703920582 H 0.0 **** 0.06
11321 C 10.780496995965677 92.78032923783712 136.07875449009646 C 0.0 **** -0.24
11322 H 11.750497753221168 93.24846115120903 135.91344001204286 H 0.0 **** 0.06
11323 H 10.377824022964376 92.43346191382122 135.12631633594566 H 0.0 **** 0.06
11324 H 10.096416451089738 93.50656419290442 136.51871639714216 H 0.0 **** 0.06
11325 H 10.895585173728136 91.93334209120724 136.75482277701633 H 0.0 **** 0.06
11326 C 66.1304426308306 108.69988347520729 72.91945562484256 C 0.0 **** -0.24
11327 H 66.14709109890137 108.65646740870761 71.83070693368504 H 0.0 **** 0.06
11328 H 65.46592648571658 107.92616620076313 73.30431629460583 H 0.0 **** 0.06
11329 H 65.77066914499272 109.67896232123803 73.23709777097665 H 0.0 **** 0.06
11330 H 67.1375986564918 108.5401081652767 73.30467433120629 H 0.0 **** 0.06
11331 C 102.99881474581215 37.52704943718305 159.2613499879702 C 0.0 **** -0.24
11332 H 102.8803836212912 38.57537301509899 159.5348634100478 H 0.0 **** 0.06
11333 H 102.75178006373014 37.39589826234027 158.20757102232463 H 0.0 **** 0.06
11334 H 102.33297051495191 36.916360131580916 159.8698554044495 H 0.0 **** 0.06
11335 H 104.03101081975683 37.221438929067375 159.43378360413124 H 0.0 **** 0.06
11336 C 19.41303750046714 60.31846746164602 15.596879924108777 C 0.0 **** -0.24
11337 H 20.424742713411092 60.72176153856479 15.585555092905196 H 0.0 **** 0.06
11338 H 18.69975168421945 61.123038929452335 15.416996727184056 H 0.0 **** 0.06
11339 H 19.212737908879717 59.866257493872936 16.568480196966902 H 0.0 **** 0.06
11340 H 19.314041392150074 59.56315980020452 14.816820962538372 H 0.0 **** 0.06
11341 C 53.48957879330186 139.00968295437934 70.60779153728754 C 0.0 **** -0.24
11342 H 54.12296036898485 138.23207604435208 70.18008001127498 H 0.0 **** 0.06
11343 H 53.546802766058704 138.96761619327432 71.69559007926802 H 0.0 **** 0.06
11344 H 52.458856654338035 138.85186809813388 70.2904664738495 H 0.0 **** 0.06
11345 H 53.830089364994876 139.98569609806447 70.26208537794099 H 0.0 **** 0.06
11346 C 75.17175790436401 134.30000343827575 84.20716789058582 C 0.0 **** -0.24
11347 H 76.11529770657494 134.65155068571437 83.78826806076859 H 0.0 **** 0.06
11348 H 74.87136684011116 133.3810839460131 83.70177587391095 H 0.0 **** 0.06
11349 H 74.40517956534102 135.06101814551553 84.06526621409535 H 0.0 **** 0.06
11350 H 75.29811639160654 134.1048836895072 85.27186486983999 H 0.0 **** 0.06
11351 C 82.93787607264218 110.36139571739713 15.187854840795886 C 0.0 **** -0.24
11352 H 81.90445216625048 110.16478605842457 14.902336840010875 H 0.0 **** 0.06
11353 H 83.36602891353695 111.10377303143412 14.515112771566628 H 0.0 **** 0.06
11354 H 83.51298904350229 109.43796239945328 15.124413402748822 H 0.0 **** 0.06
11355 H 82.965824997581 110.73779984194607 16.21079260600093 H 0.0 **** 0.06
11356 C 93.41846488607189 108.72902742618129 11.920923108600562 C 0.0 **** -0.24
11357 H 94.47811849602672 108.51627319870656 11.774872560795984 H 0.0 **** 0.06
11358 H 93.24840104736495 109.03178078221268 12.95468932339071 H 0.0 **** 0.06
11359 H 92.83522365273515 107.83417757910993 11.703096849693338 H 0.0 **** 0.06
11360 H 93.11439385952117 109.53309076036672 11.250594213320113 H 0.0 **** 0.06
11361 C 92.85608851315197 133.6704472694906 110.02092930564407 C 0.0 **** -0.24
11362 H 92.83531363090339 133.6758567772604 108.93106555164539 H 0.0 **** 0.06
11363 H 93.4777503478251 132.8447930701264 110.36730708150262 H 0.0 **** 0.06
11364 H 91.84236023419729 133.54761351099847 110.40291977235577 H 0.0 **** 0.06
11365 H 93.26831050044035 134.61273069080264 110.3804286960715 H 0.0 **** 0.06
11366 C 148.06480614448947 83.47846723667763 121.87878489416397 C 0.0 **** -0.24
11367 H 147.54907503182727 83.46800399369343 120.9190324422024 H 0.0 **** 0.06
11368 H 149.07316518955588 83.86972914519444 121.7452858349109 H 0.0 **** 0.06
11369 H 148.11855769913902 82.4629513119052 122.27359002468054 H 0.0 **** 0.06
11370 H 147.51863268716897 84.11126433063129 122.57835851393358 H 0.0 **** 0.06
11371 C 22.044250754353556 84.54837531390902 79.37875189646074 C 0.0 **** -0.24
11372 H 22.69302562694343 83.71283048393042 79.11394651547138 H 0.0 **** 0.06
11373 H 22.22775998487179 85.38048541823525 78.69857250001249 H 0.0 **** 0.06
11374 H 22.253627589132243 84.86053248609383 80.40165809069453 H 0.0 **** 0.06
11375 H 21.002255362894473 84.23832120429154 79.29906555328185 H 0.0 **** 0.06
11376 C 120.23940088088077 46.869580053881734 45.286176966727254 C 0.0 **** -0.24
11377 H 119.68968210858907 47.77241694580685 45.54893278658923 H 0.0 **** 0.06
11378 H 120.10281455607878 46.656959847775326 44.22569184589763 H 0.0 **** 0.06
11379 H 119.86707454105792 46.03257199501357 45.87669492284685 H 0.0 **** 0.06
11380 H 121.30019650488364 47.01692377224036 45.493281729146474 H 0.0 **** 0.06
11381 C 151.3508739470456 79.53807930536513 63.40627762410118 C 0.0 **** -0.24
11382 H 151.09412143377114 78.48800702622049 63.54060247876269 H 0.0 **** 0.06
11383 H 152.40745300023386 79.68515391266214 63.63005121287685 H 0.0 **** 0.06
11384 H 150.74877868088365 80.14797694611627 64.07994447112479 H 0.0 **** 0.06
11385 H 151.1524799532155 79.83234032554324 62.37561369506585 H 0.0 **** 0.06
11386 C 11.924035715603281 121.59790955698924 92.62368882846657 C 0.0 **** -0.24
11387 H 12.517993900237343 121.89891750914873 93.48689028573136 H 0.0 **** 0.06
11388 H 10.872724938315685 121.81331004322163 92.8131225079847 H 0.0 **** 0.06
11389 H 12.051481887683508 120.52920682247148 92.45057094528688 H 0.0 **** 0.06
11390 H 12.256705442370901 122.15080401020776 91.74410683089229 H 0.0 **** 0.06
11391 C 137.60592583610958 11.610474470669061 120.97192687627015 C 0.0 **** -0.24
11392 H 136.6784231828828 12.132479834330326 121.20438987304098 H 0.0 **** 0.06
11393 H 138.38699245020575 11.932362524513195 121.66103056533552 H 0.0 **** 0.06
11394 H 137.90496836680757 11.841754108392365 119.94904849495927 H 0.0 **** 0.06
11395 H 137.45342318511854 10.536304754893422 121.07224731625993 H 0.0 **** 0.06
11396 C 153.2648107801745 43.40195442079221 28.40012012169116 C 0.0 **** -0.24
11397 H 153.4024295959714 42.62508052536464 27.647589133391904 H 0.0 **** 0.06
11398 H 153.6232540760093 44.354145308633974 28.00801962880407 H 0.0 **** 0.06
11399 H 153.8283678002855 43.14289197825315 29.296544127059086 H 0.0 **** 0.06
11400 H 152.20649599738397 43.484151588204895 28.64694858498808 H 0.0 **** 0.06
11401 C 142.2922323417033 154.18820438007864 89.91527645962472 C 0.0 **** -0.24
11402 H 142.765980313923 153.99636722749622 88.95271362455111 H 0.0 **** 0.06
11403 H 141.2843841084835 153.77298072314082 89.91324876230934 H 0.0 **** 0.06
11404 H 142.24281670949762 155.26262815130036 90.08752181540335 H 0.0 **** 0.06
11405 H 142.87721453659307 153.71952250342238 90.7065677986699 H 0.0 **** 0.06
11406 C 13.950539172329172 16.646527557900953 80.778922011955 C 0.0 **** -0.24
11407 H 14.04836727725035 16.709985706988213 79.69491112711417 H 0.0 **** 0.06
11408 H 14.809702747718859 17.124999292594026 81.2486619348789 H 0.0 **** 0.06
11409 H 13.906604713592685 15.600505552574695 81.07889621499952 H 0.0 **** 0.06
11410 H 13.037147187866196 17.153681155187385 81.09109374785842 H 0.0 **** 0.06
11411 C 142.53996723064634 155.8486146575804 20.38341234292011 C 0.0 **** -0.24
11412 H 142.66356602717926 156.9029298070508 20.628501558306276 H 0.0 **** 0.06
11413 H 141.51635858072132 155.54249235782322 20.600958537360675 H 0.0 **** 0.06
11414 H 143.2313499411918 155.25337502096187 20.978804263861583 H 0.0 **** 0.06
11415 H 142.74829096355685 155.69539258282268 19.324470853524012 H 0.0 **** 0.06
11416 C 0.5778458688550927 75.3571507230357 11.906203358697468 C 0.0 **** -0.24
11417 H -0.2154720846342002 76.0283691278373 12.234408048877413 H 0.0 **** 0.06
11418 H 0.25882364902497557 74.32319357541097 12.044059619683338 H 0.0 **** 0.06
11419 H 1.4764234070798068 75.54160364475636 12.49391446643046 H 0.0 **** 0.06
11420 H 0.7900834306022944 75.5341732991993 10.852151149428252 H 0.0 **** 0.06
11421 C 2.8538028000750373 23.27478772465031 42.956526003087106 C 0.0 **** -0.24
11422 H 3.935227069029388 23.332226622674796 43.07610086852134 H 0.0 **** 0.06
11423 H 2.5303042373931603 24.00368358523562 42.21436542797693 H 0.0 **** 0.06
11424 H 2.3712324324578375 23.4882545745169 43.91112521138976 H 0.0 **** 0.06
11425 H 2.5772388194581097 22.272770335274345 42.627274735828905 H 0.0 **** 0.06
11426 C 161.35727619586095 109.634018534293 86.17873800418359 C 0.0 **** -0.24
11427 H 161.57436303261665 110.38178342583839 85.4161877973666 H 0.0 **** 0.06
11428 H 161.5436309066216 110.05756984219673 87.16563418252551 H 0.0 **** 0.06
11429 H 161.9973371272421 108.76503223454279 86.02824995964562 H 0.0 **** 0.06
11430 H 160.31186931293155 109.33208966385286 86.10441905492304 H 0.0 **** 0.06
11431 C 26.286219233155315 57.88648437831773 120.22810876550975 C 0.0 **** -0.24
11432 H 26.38329390663305 58.6421259947479 119.44851456742299 H 0.0 **** 0.06
11433 H 26.446909330631406 58.34765978309008 121.20322918504314 H 0.0 **** 0.06
11434 H 27.02739071588274 57.10367076409429 120.06882123788068 H 0.0 **** 0.06
11435 H 25.28645145109391 57.45395888646229 120.19151734236237 H 0.0 **** 0.06
11436 C 19.684045074885034 34.70952835291945 48.13606587956285 C 0.0 **** -0.24
11437 H 20.17624479307176 33.74101800880135 48.21563950252528 H 0.0 **** 0.06
11438 H 19.44516515967223 35.077936012943425 49.133837920228245 H 0.0 **** 0.06
11439 H 18.76508755766966 34.603575413220284 47.55874106672846 H 0.0 **** 0.06
11440 H 20.34791609135658 35.414373941263406 47.637234471614036 H 0.0 **** 0.06
11441 C 58.37233587439539 155.62902312507725 26.2519810701059 C 0.0 **** -0.24
11442 H 57.4032087890611 156.11373709944328 26.371358289868454 H 0.0 **** 0.06
11443 H 59.05276782713241 155.98137418819843 27.027175846160958 H 0.0 **** 0.06
11444 H 58.78119063121913 155.87238259379978 25.27114529259177 H 0.0 **** 0.06
11445 H 58.25072698845584 154.5492734136711 26.336388922509173 H 0.0 **** 0.06
11446 C 60.28948788852489 103.99942744920995 122.2346569174091 C 0.0 **** -0.24
11447 H 60.48849187276983 104.41986971644928 121.24966477314729 H 0.0 **** 0.06
11448 H 61.228120400025944 103.68794481601313 122.69352666899408 H 0.0 **** 0.06
11449 H 59.62949658859907 103.13738963678938 122.13495653599841 H 0.0 **** 0.06
11450 H 59.81175739564617 104.75210796770014 122.86139326754983 H 0.0 **** 0.06
11451 C 53.40194239598202 49.448909373269714 111.47174798642959 C 0.0 **** -0.24
11452 H 53.901799080069225 49.080218198426905 110.57550304372467 H 0.0 **** 0.06
11453 H 52.53399491858954 48.82424311840032 111.68549815942706 H 0.0 **** 0.06
11454 H 53.07866148830169 50.47694918005641 111.30868829749724 H 0.0 **** 0.06
11455 H 54.09258133746101 49.41392312138163 112.31378518534845 H 0.0 **** 0.06
11456 C 100.61178142414315 25.201949964082075 68.35751793137541 C 0.0 **** -0.24
11457 H 100.99827387079844 25.318238530644834 67.3448035463817 H 0.0 **** 0.06
11458 H 100.73138287255472 26.139053698554306 68.90182387424085 H 0.0 **** 0.06
11459 H 101.16259547176347 24.412056409576905 68.86819778607625 H 0.0 **** 0.06
11460 H 99.55467410129859 24.938309269549165 68.31385362301454 H 0.0 **** 0.06
11461 C 34.908712350949855 108.66835011288339 21.88410713497815 C 0.0 **** -0.24
11462 H 33.95482088445449 108.84160702397082 21.386687848861484 H 0.0 **** 0.06
11463 H 35.04805184204149 107.59832610029196 22.040321714189197 H 0.0 **** 0.06
11464 H 34.915653990273086 109.17945999676058 22.846755228650544 H 0.0 **** 0.06
11465 H 35.71773432274861 109.05304741454376 21.26237059897322 H 0.0 **** 0.06
11466 C 134.26363719189837 40.04567041806526 120.36559412147577 C 0.0 **** -0.24
11467 H 133.27346174362094 39.82655109686462 120.7647985205532 H 0.0 **** 0.06
11468 H 134.72176626145577 39.12516946022025 120.00291434892762 H 0.0 **** 0.06
11469 H 134.88557190393934 40.47611331877194 121.15119135520536 H 0.0 **** 0.06
11470 H 134.17404047538565 40.75617409149609 119.54307734182407 H 0.0 **** 0.06
11471 C 41.10744699740829 28.328055457707066 156.96976716964343 C 0.0 **** -0.24
11472 H 40.29700835917171 28.77074486245462 157.54923949399605 H 0.0 **** 0.06
11473 H 41.44877330765412 27.416260851441038 157.46006994027275 H 0.0 **** 0.06
11474 H 41.93336593790717 29.036817635340057 156.90232858048012 H 0.0 **** 0.06
11475 H 40.7507211776086 28.09034117993096 155.96789918962324 H 0.0 **** 0.06
11476 C 11.518263792969499 8.87991150409161 138.2384059767695 C 0.0 **** -0.24
11477 H 11.1118083576048 8.399914707904315 137.34842738296973 H 0.0 **** 0.06
11478 H 12.60792969431209 8.852428712281437 138.1992802504026 H 0.0 **** 0.06
11479 H 11.171827908858113 8.352142277837487 139.1263691774571 H 0.0 **** 0.06
11480 H 11.182210909970983 9.916337941346796 138.27653168801976 H 0.0 **** 0.06
11481 C 149.4243493315563 23.47237472864134 7.291839906802693 C 0.0 **** -0.24
11482 H 150.45132525788432 23.837966875465497 7.276651131832779 H 0.0 **** 0.06
11483 H 149.41513093613253 22.407029779857226 7.060163330936774 H 0.0 **** 0.06
11484 H 148.83658900567184 24.011062814699187 6.549078317719989 H 0.0 **** 0.06
11485 H 148.9957017356666 23.633421971546966 8.281044578736726 H 0.0 **** 0.06
11486 C 132.84152632479672 70.6131615465476 63.85558715257861 C 0.0 **** -0.24
11487 H 132.0050290368557 70.79895600599409 64.52771995111435 H 0.0 **** 0.06
11488 H 133.30061659893303 71.56189256037808 63.5754399113643 H 0.0 **** 0.06
11489 H 132.48255190887457 70.10471457770336 62.96059669835799 H 0.0 **** 0.06
11490 H 133.57954541438176 69.98759852220948 64.35836304947493 H 0.0 **** 0.06
11491 C 6.889146346924633 32.71374845235516 110.41085764699 C 0.0 **** -0.24
11492 H 6.3801099002577075 33.57104606544942 109.97016550951847 H 0.0 **** 0.06
11493 H 7.353564553107617 33.011174410181695 111.35187222293689 H 0.0 **** 0.06
11494 H 7.657124674751344 32.35477587624649 109.72465222833915 H 0.0 **** 0.06
11495 H 6.167049848842339 31.91836839593114 110.59622506218119 H 0.0 **** 0.06
11496 C 18.230562770363292 15.602122021768139 20.381636490072168 C 0.0 **** -0.24
11497 H 18.960558322659693 14.888429414620276 20.76395732605306 H 0.0 **** 0.06
11498 H 17.25220683996301 15.385974147003736 20.811339456030026 H 0.0 **** 0.06
11499 H 18.17717753277492 15.519215141981135 19.29589142994385 H 0.0 **** 0.06
11500 H 18.533945641845435 16.612417850708738 20.654801284217484 H 0.0 **** 0.06
11501 C 114.29507281126621 132.37299366227978 113.15857802689118 C 0.0 **** -0.24
11502 H 114.45689424386504 132.18364161705532 114.22008474142552 H 0.0 **** 0.06
11503 H 113.34287605378262 131.93814383983315 112.85358156166751 H 0.0 **** 0.06
11504 H 115.10244307059594 131.9211588561188 112.58220711220338 H 0.0 **** 0.06
11505 H 114.27762589939582 133.44730302002887 112.98011567665594 H 0.0 **** 0.06
11506 C 105.67080703735843 93.50588768946302 53.30692959939279 C 0.0 **** -0.24
11507 H 105.03418901533553 93.92758656964206 54.08498063607101 H 0.0 **** 0.06
11508 H 105.05147483096573 93.15353936746199 52.48227020034483 H 0.0 **** 0.06
11509 H 106.23992637312938 92.67053709832557 53.716283313101144 H 0.0 **** 0.06
11510 H 106.35746875379266 94.27123804639787 52.94578092930362 H 0.0 **** 0.06
11511 C 26.53419989252029 13.879774632964086 75.17311808294819 C 0.0 **** -0.24
11512 H 25.572281848204 13.887733578571414 74.66099292967453 H 0.0 **** 0.06
11513 H 27.337393263014803 13.894837545263385 74.43693987754432 H 0.0 **** 0.06
11514 H 26.614290242249638 12.979799321222629 75.78179105946334 H 0.0 **** 0.06
11515 H 26.610648156744105 14.759343769527618 75.81336466984658 H 0.0 **** 0.06
11516 C 25.468184845052292 141.17828267368859 33.58454995272356 C 0.0 **** -0.24
11517 H 24.82440948286535 141.74066511854994 34.2622727447325 H 0.0 **** 0.06
11518 H 24.881091560025766 140.82427338077986 32.73738129250519 H 0.0 **** 0.06
11519 H 25.894998573231874 140.3257494845837 34.11368801127418 H 0.0 **** 0.06
11520 H 26.271176514740205 141.82334967891862 33.22769452312944 H 0.0 **** 0.06
11521 C 131.28006115200984 35.8135777950767 98.49332870047328 C 0.0 **** -0.24
11522 H 131.10190355086962 36.59598453317261 99.23104031197818 H 0.0 **** 0.06
11523 H 132.33298200968358 35.53155400783578 98.5113320039514 H 0.0 **** 0.06
11524 H 131.01974781159703 36.18206605722031 97.50116933016909 H 0.0 **** 0.06
11525 H 130.66651080572447 34.944348454090914 98.7312093344027 H 0.0 **** 0.06
11526 C 52.09656021112109 10.635403388649706 115.15595867913419 C 0.0 **** -0.24
11527 H 51.07566500648011 10.264077415322276 115.05672201964853 H 0.0 **** 0.06
11528 H 52.323298695288074 11.300536278310574 114.32282498673243 H 0.0 **** 0.06
11529 H 52.789921741581765 9.793919802940422 115.14902738564177 H 0.0 **** 0.06
11530 H 52.19497318933416 11.18051584190539 116.09439415191491 H 0.0 **** 0.06
11531 C 47.126926786517174 133.84772885351063 110.44242053752873 C 0.0 **** -0.24
11532 H 47.9706056959933 133.54917290861556 109.81922061955032 H 0.0 **** 0.06
11533 H 46.590081450062826 134.66384807170954 109.95815471963368 H 0.0 **** 0.06
11534 H 47.493475804618924 134.1790863515044 111.41428981854085 H 0.0 **** 0.06
11535 H 46.4564032881442 132.99904018437473 110.57561446460613 H 0.0 **** 0.06
11536 C 132.1559149269885 92.27792749674363 30.516234534892924 C 0.0 **** -0.24
11537 H 132.11625583199978 92.60927870403486 29.47858074426326 H 0.0 **** 0.06
11538 H 131.24837304808125 91.72227989507759 30.755452807524534 H 0.0 **** 0.06
11539 H 132.2342039132533 93.14485920534752 31.171979219235133 H 0.0 **** 0.06
11540 H 133.0245439948128 91.63465874570957 30.659645607659847 H 0.0 **** 0.06
11541 C 106.91083145077204 98.64455000910107 138.6051198224848 C 0.0 **** -0.24
11542 H 105.89504130512054 99.03598592546498 138.53696406401167 H 0.0 **** 0.06
11543 H 107.56332972114686 99.21307884546198 137.94087973906719 H 0.0 **** 0.06
11544 H 106.91614522769524 97.59529508853095 138.31070902538406 H 0.0 **** 0.06
11545 H 107.26694732281675 98.73656848153217 139.63048117271518 H 0.0 **** 0.06
11546 C 115.42925233449293 94.23653687469431 5.510588113084218 C 0.0 **** -0.24
11547 H 114.72108049643833 94.23686654038283 6.339686068346396 H 0.0 **** 0.06
11548 H 114.93074581176216 93.88016076888658 4.608201707174899 H 0.0 **** 0.06
11549 H 116.26516161881054 93.57838441295007 5.748034669308602 H 0.0 **** 0.06
11550 H 115.79768443333006 95.24886184316233 5.34659487352679 H 0.0 **** 0.06
11551 C 34.717735113900375 130.96838049835873 40.48648612852092 C 0.0 **** -0.24
11552 H 35.10158177239903 131.65884731249443 39.73497950868426 H 0.0 **** 0.06
11553 H 33.84502405972934 131.40802652456662 40.97084207829279 H 0.0 **** 0.06
11554 H 35.489140333643064 130.77667615196498 41.23243538356671 H 0.0 **** 0.06
11555 H 34.433769425016095 130.03137551948683 40.007682404703445 H 0.0 **** 0.06
11556 C 14.09664291165518 93.61390315606431 12.262436170935693 C 0.0 **** -0.24
11557 H 14.730133278631826 93.4895289546107 11.384811059768523 H 0.0 **** 0.06
11558 H 13.825024442796177 94.6636855440085 12.369123443246544 H 0.0 **** 0.06
11559 H 14.638187448566498 93.28635977608832 13.150225404636942 H 0.0 **** 0.06
11560 H 13.193546728048602 93.01366017664637 12.14607662337211 H 0.0 **** 0.06
11561 C 25.933430610722212 54.87206574194535 93.01137781351777 C 0.0 **** -0.24
11562 H 26.736469136053586 54.167858097015156 93.23073049639585 H 0.0 **** 0.06
11563 H 24.99441999597161 54.48821160857206 93.41314515665019 H 0.0 **** 0.06
11564 H 25.843780135627696 54.996297464785314 91.9327165629756 H 0.0 **** 0.06
11565 H 26.15895418535834 55.834586519855804 93.4714242795015 H 0.0 **** 0.06
11566 C 150.0635036543846 152.9051357728266 47.89336558524475 C 0.0 **** -0.24
11567 H 149.22873888065703 153.5768052053744 47.69299392458366 H 0.0 **** 0.06
11568 H 150.51887071632532 153.16803622752312 48.84803518186766 H 0.0 **** 0.06
11569 H 150.8031681974852 152.9978011516062 47.09926402221468 H 0.0 **** 0.06
11570 H 149.7007503045376 151.87829547901387 47.93480062095507 H 0.0 **** 0.06
11571 C 116.04365453483598 74.4278420446966 68.87698034806246 C 0.0 **** -0.24
11572 H 117.11930857851192 74.5589551178559 68.99859705646524 H 0.0 **** 0.06
11573 H 115.76658230427799 73.41342342762593 69.16646739443104 H 0.0 **** 0.06
11574 H 115.77406738598862 74.59483629492394 67.83375574664332 H 0.0 **** 0.06
11575 H 115.51602518672914 75.14275834049855 69.50801030352311 H 0.0 **** 0.06
11576 C 107.72059703961594 17.302623535728458 96.71468811172906 C 0.0 **** -0.24
11577 H 107.37346259694402 17.448770871160434 95.69103995943482 H 0.0 **** 0.06
11578 H 108.46785232272475 16.510043947118106 96.73471208333129 H 0.0 **** 0.06
11579 H 106.87718034495745 17.025447628162794 97.34731016319108 H 0.0 **** 0.06
11580 H 108.1620807060576 18.22896050822908 97.08318622919617 H 0.0 **** 0.06
11581 C 89.57761817400899 122.07910468885481 56.395019281949146 C 0.0 **** -0.24
11582 H 90.2563733340848 121.23974648875759 56.549250044583275 H 0.0 **** 0.06
11583 H 89.18438675613459 122.40931831604874 57.357463007413656 H 0.0 **** 0.06
11584 H 88.75286827950006 121.76663290674091 55.75365909785245 H 0.0 **** 0.06
11585 H 90.11618521716196 122.89964375986571 55.92034144841138 H 0.0 **** 0.06
11586 C 86.2667586748441 154.1643527467579 17.696316419216487 C 0.0 **** -0.24
11587 H 86.46562736445108 154.43154205674853 18.73380085235584 H 0.0 **** 0.06
11588 H 86.93809237143286 154.7213797049735 17.04260555216598 H 0.0 **** 0.06
11589 H 85.23319960315874 154.40788694948495 17.450634536219695 H 0.0 **** 0.06
11590 H 86.43058979844851 153.09552220655806 17.559004748441453 H 0.0 **** 0.06
11591 C 78.01915571720431 138.14650068525515 61.25909928877229 C 0.0 **** -0.24
11592 H 77.5581008814716 137.21506486257022 60.93057896733205 H 0.0 **** 0.06
11593 H 78.39672483057515 138.69001599485514 60.39178989076959 H 0.0 **** 0.06
11594 H 78.84365326270998 137.92409672556389 61.935557783036984 H 0.0 **** 0.06
11595 H 77.2785654677445 138.7555434262667 61.77561048928044 H 0.0 **** 0.06
11596 C 126.39258660959544 19.61871007845309 82.07431072194365 C 0.0 **** -0.24
11597 H 126.38615092222113 18.734302305298115 82.71123012191515 H 0.0 **** 0.06
11598 H 126.86798726922811 20.4443296326003 82.60381560230394 H 0.0 **** 0.06
11599 H 125.36848964512615 19.89070961309352 81.82012281049575 H 0.0 **** 0.06
11600 H 126.94789490963609 19.40360347661226 81.16146040969187 H 0.0 **** 0.06
11601 C 40.9821705284225 33.22800606659433 78.17036915807778 C 0.0 **** -0.24
11602 H 41.960831193603155 32.91690713746566 77.80588926345305 H 0.0 **** 0.06
11603 H 40.87272291724156 32.934214601010964 79.21447914356735 H 0.0 **** 0.06
11604 H 40.20378863457864 32.749689195333744 77.57443249589953 H 0.0 **** 0.06
11605 H 40.89036257156948 34.31049794740318 78.08594487192234 H 0.0 **** 0.06
11606 C 127.51887717196868 16.738784433849354 105.50826027427004 C 0.0 **** -0.24
11607 H 128.048667098831 16.828763233834913 104.55979661521806 H 0.0 **** 0.06
11608 H 126.5663430571239 17.265168795209185 105.44361404834211 H 0.0 **** 0.06
11609 H 128.1222885458402 17.173583370851688 106.30514260964057 H 0.0 **** 0.06
11610 H 127.33741235196055 15.685934754320549 105.72290162381336 H 0.0 **** 0.06
11611 C 146.5003927963543 18.70332207658157 106.66420774504516 C 0.0 **** -0.24
11612 H 145.48172115684483 18.328638861707702 106.75751045401444 H 0.0 **** 0.06
11613 H 146.73257798942052 18.867355291473984 105.61134449004348 H 0.0 **** 0.06
11614 H 147.1949871461778 17.973174044237282 107.07973078896558 H 0.0 **** 0.06
11615 H 146.59312688538432 19.643121286809503 107.20770352438805 H 0.0 **** 0.06
11616 C 17.390780325100877 56.90151562769658 70.28990752152338 C 0.0 **** -0.24
11617 H 17.65977310496379 55.86305547300195 70.09886244352171 H 0.0 **** 0.06
11618 H 18.241475797075367 57.54466868643061 70.0618411926741 H 0.0 **** 0.06
11619 H 17.116604646363044 57.01915191556 71.3387651321534 H 0.0 **** 0.06
11620 H 16.54519392770868 57.180889763129755 69.66046679524086 H 0.0 **** 0.06
11621 C 34.125736330044106 133.84629851140807 116.8339105781128 C 0.0 **** -0.24
11622 H 35.185886544724525 134.01077295677274 116.6421098360631 H 0.0 **** 0.06
11623 H 33.68433004983876 133.30355217795895 115.99773608419403 H 0.0 **** 0.06
11624 H 33.625068865979046 134.80728390464355 116.94915380087966 H 0.0 **** 0.06
11625 H 34.008451151634375 133.26401313993858 117.74773374615282 H 0.0 **** 0.06
11626 C 79.17812708791718 27.723687517592566 92.40099187321371 C 0.0 **** -0.24
11627 H 78.20657201268125 27.548089408584758 91.93699623264767 H 0.0 **** 0.06
11628 H 79.42571166957619 28.782868522786202 92.33373626746436 H 0.0 **** 0.06
11629 H 79.93767171118056 27.137933044593865 91.88297592150202 H 0.0 **** 0.06
11630 H 79.13961816712688 27.423570436417606 93.44798979399624 H 0.0 **** 0.06
11631 C 4.536643299902103 61.11336924928696 23.84439903109228 C 0.0 **** -0.24
11632 H 4.956109170560097 60.13290373209884 23.61736680835088 H 0.0 **** 0.06
11633 H 4.567787729590158 61.73727401216121 22.950855666891073 H 0.0 **** 0.06
11634 H 5.121144908480382 61.58339610924537 24.636362746704094 H 0.0 **** 0.06
11635 H 3.5043392383450396 60.99985533350713 24.173348465444235 H 0.0 **** 0.06
11636 C 44.40406106910041 6.2233466176896854 7.403064152436691 C 0.0 **** -0.24
11637 H 44.12783026278743 5.169662617502013 7.443355932665561 H 0.0 **** 0.06
11638 H 45.399510300773414 6.354534717399815 7.827483014356254 H 0.0 **** 0.06
11639 H 43.68506797060343 6.810266445768548 7.975042220370234 H 0.0 **** 0.06
11640 H 44.403835742237305 6.5589226900885365 6.366375442354652 H 0.0 **** 0.06
11641 C 32.400827899745934 124.16430302276564 32.750570507353444 C 0.0 **** -0.24
11642 H 33.18539236373752 123.40908904859728 32.70270284243071 H 0.0 **** 0.06
11643 H 32.786263265329836 125.11204525446715 32.3753411359821 H 0.0 **** 0.06
11644 H 32.078784105101676 124.28683474622673 33.785279966399685 H 0.0 **** 0.06
11645 H 31.55512528124035 123.84815292050584 32.14113387917314 H 0.0 **** 0.06
11646 C 67.49075290468372 66.35467032177718 150.73788911378182 C 0.0 **** -0.24
11647 H 66.72300397150173 66.34529059665562 149.96481510430726 H 0.0 **** 0.06
11648 H 67.41055529794 65.45073076678727 151.34056269044908 H 0.0 **** 0.06
11649 H 67.35277263141461 67.2296233055477 151.37401615344646 H 0.0 **** 0.06
11650 H 68.47539547113863 66.39625258601734 150.272255366715 H 0.0 **** 0.06
11651 C 20.716160521847627 82.59332400303228 124.5744901329065 C 0.0 **** -0.24
11652 H 21.775260963586476 82.39883679180329 124.40675277456202 H 0.0 **** 0.06
11653 H 20.243857847481195 81.69987342778288 124.98405104205656 H 0.0 **** 0.06
11654 H 20.240132346007698 82.85460163724423 123.629388535679 H 0.0 **** 0.06
11655 H 20.605158832549506 83.4186557278577 125.27734218458451 H 0.0 **** 0.06
11656 C 51.88058109980359 27.11485892047824 147.8989872524789 C 0.0 **** -0.24
11657 H 51.297560845166046 27.321934895540608 147.00146745539143 H 0.0 **** 0.06
11658 H 51.68916203575341 26.093333003375108 148.227542268561 H 0.0 **** 0.06
11659 H 51.59327648586462 27.81078424963846 148.68726376169647 H 0.0 **** 0.06
11660 H 52.941508667254084 27.233828685829394 147.67740934504639 H 0.0 **** 0.06
11661 C 66.14969031476478 118.02344191181885 125.99913425147145 C 0.0 **** -0.24
11662 H 66.89393100393691 117.29448164059195 125.676328401045 H 0.0 **** 0.06
11663 H 66.17358101955212 118.8855185050671 125.33311096785576 H 0.0 **** 0.06
11664 H 66.3723968852587 118.34300673031774 127.01682081674056 H 0.0 **** 0.06
11665 H 65.15988998877619 117.5678533178118 125.96906423927084 H 0.0 **** 0.06
11666 C 63.42708266250554 139.39266933649446 113.23722061491299 C 0.0 **** -0.24
11667 H 63.83178374956695 139.22158010102208 112.23963835602535 H 0.0 **** 0.06
11668 H 63.41049502337002 138.4520101858343 113.78850103018436 H 0.0 **** 0.06
11669 H 62.413299368545 139.78411247732572 113.15487654341865 H 0.0 **** 0.06
11670 H 64.05286382174832 140.11196919571205 113.76487816341506 H 0.0 **** 0.06
11671 C 113.96303830947738 128.9161771797537 64.23711003933143 C 0.0 **** -0.24
11672 H 113.32396013179539 129.5816897356171 64.81667362526333 H 0.0 **** 0.06
11673 H 113.43051002647337 127.98480356628784 64.03720565355971 H 0.0 **** 0.06
11674 H 114.87073486638758 128.70195297285187 64.80128803043718 H 0.0 **** 0.06
11675 H 114.22527768475715 129.39478535200357 63.2934392329107 H 0.0 **** 0.06
11676 C 70.14414473009276 144.38109592505498 64.10665911260662 C 0.0 **** -0.24
11677 H 70.13288520350213 143.297637204968 64.22815109171009 H 0.0 **** 0.06
11678 H 69.96936557331361 144.85694374403835 65.07196216147565 H 0.0 **** 0.06
11679 H 69.3607491099799 144.6771062760369 63.40845136972678 H 0.0 **** 0.06
11680 H 71.11357903357555 144.69269647517666 63.71807182751388 H 0.0 **** 0.06
11681 C 157.86266270313735 33.9654364462794 9.958942122085176 C 0.0 **** -0.24
11682 H 157.74581656532945 33.3082374845047 10.821740718194576 H 0.0 **** 0.06
11683 H 156.91309421250003 34.039248963238435 9.427929617489497 H 0.0 **** 0.06
11684 H 158.6222162248573 33.55701348104594 9.291824437278336 H 0.0 **** 0.06
11685 H 158.1698772531514 34.95506091660826 10.296034782583234 H 0.0 **** 0.06
11686 C 121.4216516128331 108.31776962838526 110.22053874695987 C 0.0 **** -0.24
11687 H 122.22130408571547 108.35887792139155 109.48162883554929 H 0.0 **** 0.06
11688 H 120.60257064258667 108.96590940161076 109.9069481043368 H 0.0 **** 0.06
11689 H 121.80204881315785 108.65385360864974 111.1862252631552 H 0.0 **** 0.06
11690 H 121.06216876278023 107.29260920800968 110.30901499312179 H 0.0 **** 0.06
11691 C 45.4769056916942 63.88664669315351 77.0849341609354 C 0.0 **** -0.24
11692 H 45.58773896405356 64.82933891582763 76.54722394642127 H 0.0 **** 0.06
11693 H 44.64850029124871 63.96633645802561 77.78861795354169 H 0.0 **** 0.06
11694 H 46.39702369986222 63.66869943620631 77.6272400741542 H 0.0 **** 0.06
11695 H 45.27519287986691 63.08541521727771 76.37419587530152 H 0.0 **** 0.06
11696 C 76.2686940112261 147.0558374565386 76.59349472577958 C 0.0 **** -0.24
11697 H 76.96695998220463 146.6949050161653 77.34955709403107 H 0.0 **** 0.06
11698 H 76.34277425532315 148.14164367081474 76.5203381124712 H 0.0 **** 0.06
11699 H 75.2533630551086 146.77784298793327 76.87450709565121 H 0.0 **** 0.06
11700 H 76.51473739385159 146.6097236778218 75.6298194641297 H 0.0 **** 0.06
11701 C 38.5445287274201 158.11828956068257 158.2529962530632 C 0.0 **** -0.24
11702 H 38.86520441519504 158.91728075910558 157.58575343845962 H 0.0 **** 0.06
11703 H 39.07926780721725 158.19959085066756 159.20048458476776 H 0.0 **** 0.06
11704 H 38.7624194834829 157.15325223653022 157.79525566791813 H 0.0 **** 0.06
11705 H 37.47288456197842 158.20207200527855 158.43256832223193 H 0.0 **** 0.06
11706 C 36.0111049343671 18.116345601324184 23.985574533428434 C 0.0 **** -0.24
11707 H 36.962322972444156 17.956909650775373 23.4785821738123 H 0.0 **** 0.06
11708 H 35.3525412444431 18.70472838740568 23.34652334233465 H 0.0 **** 0.06
11709 H 36.183000965612905 18.650914291015283 24.920403373373517 H 0.0 **** 0.06
11710 H 35.54755448445047 17.15369099864637 24.197911315465717 H 0.0 **** 0.06
11711 C 135.82499372833882 58.509212538870216 46.69323002676467 C 0.0 **** -0.24
11712 H 136.87754321462182 58.66229244690054 46.45159388653329 H 0.0 **** 0.06
11713 H 135.45710467037892 57.62676435801856 46.16875720951046 H 0.0 **** 0.06
11714 H 135.25114511097888 59.382642646324115 46.38422605512797 H 0.0 **** 0.06
11715 H 135.7170451441999 58.36448422138531 47.76894129056012 H 0.0 **** 0.06
11716 C 149.78180771428066 129.70879941375816 134.69884638504928 C 0.0 **** -0.24
11717 H 150.4269603450488 130.50846340610437 134.3340088060498 H 0.0 **** 0.06
11718 H 149.9122563792427 128.82448741761448 134.07401974080764 H 0.0 **** 0.06
11719 H 148.74260618429645 130.0344012539351 134.65712749930591 H 0.0 **** 0.06
11720 H 150.04746869624884 129.4696321585307 135.72862894773826 H 0.0 **** 0.06
11721 C 158.4747315176594 114.08562988006128 73.46202809503265 C 0.0 **** -0.24
11722 H 158.60558185663814 115.01495839890461 74.01633085204111 H 0.0 **** 0.06
11723 H 159.0549175801846 114.12760103417122 72.53959628407864 H 0.0 **** 0.06
11724 H 157.420536526789 113.95009464332364 73.22244523589472 H 0.0 **** 0.06
11725 H 158.81960997114658 113.24857938693305 74.07091827213756 H 0.0 **** 0.06
11726 C 13.972957693820021 82.8916565870282 35.95002696359148 C 0.0 **** -0.24
11727 H 14.910096044756287 82.85155974247057 35.393997434329435 H 0.0 **** 0.06
11728 H 14.110150071360337 82.42237237862304 36.92566035986795 H 0.0 **** 0.06
11729 H 13.198844115966544 82.36065174153892 35.396793871766135 H 0.0 **** 0.06
11730 H 13.675469359602396 83.93084829675554 36.08592067440071 H 0.0 **** 0.06
11731 C 29.006368767875834 125.65335260810264 83.1189293873609 C 0.0 **** -0.24
11732 H 28.502744544435316 126.56975305381758 82.81198035777561 H 0.0 **** 0.06
11733 H 29.85843343245545 125.47088166114787 82.46450826839693 H 0.0 **** 0.06
11734 H 28.310738442424217 124.81671724529599 83.05215676976249 H 0.0 **** 0.06
11735 H 29.35296663311661 125.75575135308884 84.14781728536366 H 0.0 **** 0.06
11736 C 45.98911116359179 45.420517439978795 145.0825261084777 C 0.0 **** -0.24
11737 H 46.71082612914813 46.228471689057514 145.20695410879682 H 0.0 **** 0.06
11738 H 46.076474847336726 45.00812250558516 144.07715459904753 H 0.0 **** 0.06
11739 H 44.981329707893735 45.80829299892473 145.2314002532884 H 0.0 **** 0.06
11740 H 46.189930130552625 44.63926471802537 145.81568488117694 H 0.0 **** 0.06
11741 C 156.53311185408012 101.29667558749472 0.42054125353365635 C 0.0 **** -0.24
11742 H 156.40383425443497 100.43007901002582 1.0688486860992725 H 0.0 **** 0.06
11743 H 157.20948913859544 102.00823559296666 0.8959884497372741 H 0.0 **** 0.06
11744 H 155.56595819788973 101.77169104711169 0.25279142059207516 H 0.0 **** 0.06
11745 H 156.9526677777221 100.97772921798807 -0.5332988169218993 H 0.0 **** 0.06
11746 C 117.88550508687138 132.6721628054367 80.16901638164688 C 0.0 **** -0.24
11747 H 118.3296135825654 133.2553711470953 79.36238354836672 H 0.0 **** 0.06
11748 H 116.92020043587911 133.10006250367067 80.43706226283184 H 0.0 **** 0.06
11749 H 118.54519569346564 132.69090314711096 81.03639574078855 H 0.0 **** 0.06
11750 H 117.74801029570995 131.64232457982743 79.8402486049146 H 0.0 **** 0.06
11751 C 125.47562521167669 7.55110482095165 11.094899311262509 C 0.0 **** -0.24
11752 H 124.58026063348262 7.75130227858989 11.68361665711069 H 0.0 **** 0.06
11753 H 126.33569059572946 8.019809860758642 11.572414710038856 H 0.0 **** 0.06
11754 H 125.34841021642345 7.959446074200287 10.091785332779864 H 0.0 **** 0.06
11755 H 125.63580487002852 6.47544779279599 11.031960872154002 H 0.0 **** 0.06
11756 C 30.66677122681923 108.02955095585224 76.84942770564967 C 0.0 **** -0.24
11757 H 29.87802079875859 108.14808940418311 76.10646723804604 H 0.0 **** 0.06
11758 H 31.609077423419798 107.80871429181889 76.34736588086474 H 0.0 **** 0.06
11759 H 30.412356861721896 107.20960804351284 77.52125567157995 H 0.0 **** 0.06
11760 H 30.76720826560787 108.9508873131577 77.42268293483556 H 0.0 **** 0.06
11761 C 160.00387809513296 105.08777931905223 81.90608447734638 C 0.0 **** -0.24
11762 H 160.89547524324308 105.65513893997854 81.63912672388403 H 0.0 **** 0.06
11763 H 159.90583524625092 104.22980587107708 81.24152898981512 H 0.0 **** 0.06
11764 H 159.1253414181433 105.72629825411366 81.80923016842802 H 0.0 **** 0.06
11765 H 160.08964388019697 104.74122051316613 82.93605636340877 H 0.0 **** 0.06
11766 C 68.42101383942997 3.264839219335549 148.77212333374032 C 0.0 **** -0.24
11767 H 68.33639954781725 3.199529837021572 149.85684079011915 H 0.0 **** 0.06
11768 H 67.55134644742931 3.7843776893816425 148.37068561757076 H 0.0 **** 0.06
11769 H 68.4715386525593 2.2610476649891638 148.35097419516387 H 0.0 **** 0.06
11770 H 69.3260417898628 3.814314704439525 148.5106066134812 H 0.0 **** 0.06
11771 C 34.52252708345978 160.11068545804724 47.06319413335589 C 0.0 **** -0.24
11772 H 33.72352507303775 159.52875051270402 46.60443456140986 H 0.0 **** 0.06
11773 H 34.38735639985357 161.1654400344247 46.8237812564019 H 0.0 **** 0.06
11774 H 35.48436843101676 159.77094549301034 46.68078755025387 H 0.0 **** 0.06
11775 H 34.49296506726543 159.97684905119058 48.14469113702907 H 0.0 **** 0.06
11776 C 70.44369752391894 62.48849158469369 124.84260953759781 C 0.0 **** -0.24
11777 H 70.3156342134052 63.04016408223313 123.91161862394938 H 0.0 **** 0.06
11778 H 70.77780098398952 63.17010949179544 125.62519868897152 H 0.0 **** 0.06
11779 H 71.18694175175106 61.70371320974024 124.70161032501261 H 0.0 **** 0.06
11780 H 69.49311288652811 62.04016656802909 125.13253435443505 H 0.0 **** 0.06
11781 C 33.85643948461906 22.839129121566998 16.44714893032028 C 0.0 **** -0.24
11782 H 34.47887948501442 22.30538949403654 17.164064027616348 H 0.0 **** 0.06
11783 H 33.159209263718225 22.142456003744897 15.980722655242289 H 0.0 **** 0.06
11784 H 34.48809347794496 23.288677629604287 15.681429525734188 H 0.0 **** 0.06
11785 H 33.29845419910626 23.62131231102685 16.962431136920486 H 0.0 **** 0.06
11786 C 52.38514083275868 26.960454967479905 125.74412196206293 C 0.0 **** -0.24
11787 H 53.35965596299383 27.082745139588155 125.27180615772468 H 0.0 **** 0.06
11788 H 51.692876963495905 26.506634032930208 125.03440076731985 H 0.0 **** 0.06
11789 H 52.004650466887824 27.93400472716911 126.05117694924346 H 0.0 **** 0.06
11790 H 52.4831937015378 26.31623186084755 126.61805164368815 H 0.0 **** 0.06
11791 C 146.10518344621505 123.09656035272525 108.27787893298395 C 0.0 **** -0.24
11792 H 145.5284590432912 123.42380168488171 109.14320542694324 H 0.0 **** 0.06
11793 H 145.8030457852782 123.6712734990542 107.40247989068217 H 0.0 **** 0.06
11794 H 145.92235029934162 122.03675466026073 108.09943061742325 H 0.0 **** 0.06
11795 H 147.16726006948048 123.25401082224721 108.46832178780306 H 0.0 **** 0.06
11796 C 66.88911222889878 101.08338665389635 93.58927405596532 C 0.0 **** -0.24
11797 H 66.62327164005707 100.13591761982775 94.05905282905566 H 0.0 **** 0.06
11798 H 67.40987679298996 100.89037921040381 92.65110868326634 H 0.0 **** 0.06
11799 H 67.53920775958096 101.64916637933993 94.25746863298056 H 0.0 **** 0.06
11800 H 65.9830683173718 101.65702421985657 93.39188040233601 H 0.0 **** 0.06
11801 C 161.90207673388628 10.101893248487215 156.60840727334997 C 0.0 **** -0.24
11802 H 162.56657970793108 10.709246078468937 155.99437537317402 H 0.0 **** 0.06
11803 H 162.4920182816552 9.535450563663659 157.32921551519846 H 0.0 **** 0.06
11804 H 161.347501931317 9.413060854168918 155.97177429121336 H 0.0 **** 0.06
11805 H 161.20380409544774 10.749277030331001 157.1386632587645 H 0.0 **** 0.06
11806 C 125.28752910958613 114.53280897002551 88.71602761999483 C 0.0 **** -0.24
11807 H 124.7094452360943 114.782982976195 89.60527102887657 H 0.0 **** 0.06
11808 H 126.3068926083725 114.90065817812703 88.82978987584204 H 0.0 **** 0.06
11809 H 124.82784459097164 114.99529290732781 87.84215484338067 H 0.0 **** 0.06
11810 H 125.3038118832898 113.4499619472798 88.58704276238014 H 0.0 **** 0.06
11811 C 69.3180051548625 94.83303099648577 79.89967298508816 C 0.0 **** -0.24
11812 H 68.90094800305533 94.13960792358031 80.62941239442583 H 0.0 **** 0.06
11813 H 70.16808389705034 95.35598795934624 80.34005470801162 H 0.0 **** 0.06
11814 H 68.55616051238084 95.55669352043225 79.61025954275942 H 0.0 **** 0.06
11815 H 69.647682450112 94.28045515390397 79.01990615659082 H 0.0 **** 0.06
11816 C 68.0615883551016 66.89925995093705 142.48621564314618 C 0.0 **** -0.24
11817 H 67.21885473515256 66.33352596248659 142.0898547803796 H 0.0 **** 0.06
11818 H 68.22902534570012 67.783020751903 141.86918111575005 H 0.0 **** 0.06
11819 H 68.95463553431877 66.27532240999426 142.47718786887663 H 0.0 **** 0.06
11820 H 67.84344594870795 67.2066776304178 143.50939751537788 H 0.0 **** 0.06
11821 C 52.79435959345608 134.91460178549167 97.75697839771777 C 0.0 **** -0.24
11822 H 53.59372491349569 135.55414857277958 97.38279683040003 H 0.0 **** 0.06
11823 H 51.83651142796123 135.42041200155987 97.63329416849172 H 0.0 **** 0.06
11824 H 52.961316807722426 134.70414719879545 98.81310528184915 H 0.0 **** 0.06
11825 H 52.786198309694896 133.97914529863425 97.19657368356098 H 0.0 **** 0.06
11826 C 35.68611526385848 99.4911504813121 120.5068762569357 C 0.0 **** -0.24
11827 H 36.57623292018539 99.5180151904593 121.13565897788078 H 0.0 **** 0.06
11828 H 35.22352790539543 98.5068613913443 120.57363518082454 H 0.0 **** 0.06
11829 H 35.96605270836059 99.69235673922196 119.47316696328687 H 0.0 **** 0.06
11830 H 34.97950113956125 100.24936000558674 120.8455969045757 H 0.0 **** 0.06
11831 C 48.40261268065369 155.91941990290886 90.21313537634512 C 0.0 **** -0.24
11832 H 48.08880239499145 156.93747779485727 89.98191665397894 H 0.0 **** 0.06
11833 H 48.97827484252571 155.91897584540797 91.1397910803343 H 0.0 **** 0.06
11834 H 49.020507677879365 155.53664255818515 89.40098506599497 H 0.0 **** 0.06
11835 H 47.523431788977106 155.28608267387736 90.33104536824317 H 0.0 **** 0.06
11836 C 99.84926046561168 36.830637456641554 3.777857416830784 C 0.0 **** -0.24
11837 H 100.82237774657315 36.922894012855465 3.2949823218277743 H 0.0 **** 0.06
11838 H 99.07041478449707 36.767229701018124 3.0175096431177053 H 0.0 **** 0.06
11839 H 99.67215410066791 37.70185005182698 4.408067531406914 H 0.0 **** 0.06
11840 H 99.83394060665697 35.929320858295426 4.391008753140227 H 0.0 **** 0.06
11841 C 23.922349109835892 151.24110826668536 48.74394200711832 C 0.0 **** -0.24
11842 H 24.835421495968518 151.68112734988986 48.34085525324066 H 0.0 **** 0.06
11843 H 23.154642352808594 152.01039756973694 48.825090939045424 H 0.0 **** 0.06
11844 H 24.125387902427804 150.82426945313662 49.73028804211654 H 0.0 **** 0.06
11845 H 23.576192735277175 150.45089722439707 48.07861419829514 H 0.0 **** 0.06
11846 C 113.09300348653557 59.47369503979583 70.97152541638408 C 0.0 **** -0.24
11847 H 113.84723330690676 58.88141530058847 71.48964697033301 H 0.0 **** 0.06
11848 H 112.46123265413974 58.81465065705598 70.37474235802455 H 0.0 **** 0.06
11849 H 113.583815077573 60.196233010145505 70.31968209777892 H 0.0 **** 0.06
11850 H 112.48003892965568 60.000633038512234 71.70325123583 H 0.0 **** 0.06
11851 C 122.85775685002767 32.80425499900913 49.57583726116329 C 0.0 **** -0.24
11852 H 123.67247261808026 33.189486105971696 50.1888112095303 H 0.0 **** 0.06
11853 H 122.22353485715468 32.1559954696264 50.18139067296204 H 0.0 **** 0.06
11854 H 123.26840651094571 32.234442664771116 48.74178831689214 H 0.0 **** 0.06
11855 H 122.2672523455989 33.63506204763877 49.19203408513491 H 0.0 **** 0.06
11856 C 151.18061069776633 80.22965933188681 113.83935374644136 C 0.0 **** -0.24
11857 H 150.2554000925632 79.91366194107871 113.35728752111703 H 0.0 **** 0.06
11858 H 151.4624989416369 81.21638342268001 113.4716671300734 H 0.0 **** 0.06
11859 H 151.97204953029916 79.51613496181331 113.60897706018073 H 0.0 **** 0.06
11860 H 151.03135862284773 80.27193171266495 114.91762999993091 H 0.0 **** 0.06
11861 C 9.398246721811233 123.48882525160926 83.8843343673475 C 0.0 **** -0.24
11862 H 9.996602059116583 122.58362766697874 83.78530885388666 H 0.0 **** 0.06
11863 H 9.873462961450628 124.30059493831936 83.33304372174311 H 0.0 **** 0.06
11864 H 9.320847421626297 123.76081170769896 84.93673189395301 H 0.0 **** 0.06
11865 H 8.401749461632448 123.31054714502866 83.48005848765543 H 0.0 **** 0.06
11866 C 30.4841129741757 153.55219893277408 99.5459596177748 C 0.0 **** -0.24
11867 H 31.25723262623768 153.04029333327784 100.12020656772182 H 0.0 **** 0.06
11868 H 30.03184771445126 152.8534497904185 98.8425716664193 H 0.0 **** 0.06
11869 H 30.92941708335951 154.3827396735044 98.99757908771613 H 0.0 **** 0.06
11870 H 29.720961839668064 153.9324126736692 100.22487618601707 H 0.0 **** 0.06
11871 C 41.068329323091504 74.125881718751 37.71859554104613 C 0.0 **** -0.24
11872 H 41.40094709355671 73.20085098939064 38.191557994092676 H 0.0 **** 0.06
11873 H 41.831239187655 74.47142390878481 37.02067505697025 H 0.0 **** 0.06
11874 H 40.904253431913034 74.88497328854518 38.48326863418936 H 0.0 **** 0.06
11875 H 40.13811970147911 73.94389084782388 37.180540494621056 H 0.0 **** 0.06
11876 C 18.144516937404774 64.0727658266394 25.088042324169663 C 0.0 **** -0.24
11877 H 17.838708389881162 63.14515836981735 25.571164847426473 H 0.0 **** 0.06
11878 H 18.788424302530927 64.63890308460351 25.76139645032987 H 0.0 **** 0.06
11879 H 17.260641935524234 64.66524638798101 24.847148804837218 H 0.0 **** 0.06
11880 H 18.68863120400266 63.84317247221591 24.171979330894175 H 0.0 **** 0.06
11881 C 92.92155024765785 0.8841561480801658 85.95929378361761 C 0.0 **** -0.24
11882 H 92.37505370087807 0.3374707997110704 85.19135336626609 H 0.0 **** 0.06
11883 H 92.87781044774921 1.9522302706224366 85.74578650046382 H 0.0 **** 0.06
11884 H 93.96190458390159 0.5583709317457419 85.96727607045402 H 0.0 **** 0.06
11885 H 92.47235552946486 0.6899886499339232 86.93305141824919 H 0.0 **** 0.06
11886 C 8.781377385701504 19.041844060606053 87.45499590654266 C 0.0 **** -0.24
11887 H 8.572477248052074 18.51383121364526 88.38580042088738 H 0.0 **** 0.06
11888 H 8.153754040119786 18.639139489432125 86.65983565339778 H 0.0 **** 0.06
11889 H 9.831065901565417 18.911576685039364 87.19138768862972 H 0.0 **** 0.06
11890 H 8.568192768916944 20.102684925200208 87.58519124215087 H 0.0 **** 0.06
11891 C 147.53227230314045 127.75131228538928 86.38416300615162 C 0.0 **** -0.24
11892 H 147.69279381643412 128.75279330919233 86.78404608257136 H 0.0 **** 0.06
11893 H 148.42038567954214 127.1445851569703 86.5570896897622 H 0.0 **** 0.06
11894 H 147.33680484617452 127.81447887076374 85.31355415102232 H 0.0 **** 0.06
11895 H 146.67717144486133 127.29450639125989 86.88210250492133 H 0.0 **** 0.06
11896 C 22.324732497431228 144.72470027672043 66.05022861246657 C 0.0 **** -0.24
11897 H 22.203436136062976 145.17436342035754 65.06518897923284 H 0.0 **** 0.06
11898 H 21.343736702382557 144.5550923492837 66.4954479901989 H 0.0 **** 0.06
11899 H 22.9026449986267 145.39464342895155 66.68778269272251 H 0.0 **** 0.06
11900 H 22.84890634445881 143.7739121698664 65.95402254644671 H 0.0 **** 0.06
11901 C 73.58813410726 137.46513573335127 118.64550812110966 C 0.0 **** -0.24
11902 H 72.71047668255929 137.0340211771998 118.16211739741189 H 0.0 **** 0.06
11903 H 74.15679045425968 136.6743986126361 119.13512391803005 H 0.0 **** 0.06
11904 H 73.26966189292159 138.19823937755902 119.38714372920367 H 0.0 **** 0.06
11905 H 74.21227015294194 137.95323476695074 117.89698264724589 H 0.0 **** 0.06
11906 C 155.82334243425154 103.13900986516421 65.22673112236176 C 0.0 **** -0.24
11907 H 155.6187044934621 103.3771798652125 64.18313723212923 H 0.0 **** 0.06
11908 H 156.89339521710784 103.22664931111217 65.41603045720107 H 0.0 **** 0.06
11909 H 155.49933919541797 102.12045097356037 65.43678229465424 H 0.0 **** 0.06
11910 H 155.2821675817919 103.8326807391611 65.8699280929463 H 0.0 **** 0.06
11911 C 51.04214005800165 117.15623393347721 162.02403390950943 C 0.0 **** -0.24
11912 H 51.52848409814716 118.03536016683324 162.44659087808313 H 0.0 **** 0.06
11913 H 50.01335692810348 117.40284738459201 161.7583235691714 H 0.0 **** 0.06
11914 H 51.04455640699099 116.35237373993101 162.75958797297545 H 0.0 **** 0.06
11915 H 51.581054343103546 116.83558586613435 161.13313490782508 H 0.0 **** 0.06
11916 C 87.8614852427321 101.69743112406317 106.09993557710794 C 0.0 **** -0.24
11917 H 88.74850482571523 101.37560525631358 105.553859354933 H 0.0 **** 0.06
11918 H 87.60247398655349 102.71404271437208 105.8058813850071 H 0.0 **** 0.06
11919 H 88.06375623514242 101.66912749376203 107.17083576821747 H 0.0 **** 0.06
11920 H 87.03113785948162 101.02970243644651 105.86983020049882 H 0.0 **** 0.06
11921 C 5.197180099228547 152.38537818521195 65.32466032821053 C 0.0 **** -0.24
11922 H 5.265102037976021 152.82630536195234 64.33011586346042 H 0.0 **** 0.06
11923 H 4.228746858615779 152.62652191671225 65.76330326359185 H 0.0 **** 0.06
11924 H 5.99108649326115 152.78770711737894 65.95426650478136 H 0.0 **** 0.06
11925 H 5.303890406275627 151.30311522187125 65.25030545158279 H 0.0 **** 0.06
11926 C 119.02459203725152 17.333679287690643 160.80271663944924 C 0.0 **** -0.24
11927 H 118.65140298787853 16.31187564421917 160.87739681421684 H 0.0 **** 0.06
11928 H 118.71774621395014 17.763676721856 159.84890915136396 H 0.0 **** 0.06
11929 H 120.11235463491343 17.329188211073273 160.86759497011926 H 0.0 **** 0.06
11930 H 118.61360735681379 17.92985036588145 161.6181389400258 H 0.0 **** 0.06
11931 C 100.72836824965592 125.08896793535911 10.663258181871925 C 0.0 **** -0.24
11932 H 99.65035378785115 124.9359603295841 10.608136837671566 H 0.0 **** 0.06
11933 H 100.95467579816454 125.78238760543991 11.473862858292932 H 0.0 **** 0.06
11934 H 101.08508917958517 125.50144655924757 9.720470102488264 H 0.0 **** 0.06
11935 H 101.2208451413997 124.13523300933466 10.853010808536908 H 0.0 **** 0.06
11936 C 53.209215245189625 24.764352619866955 112.25025760081729 C 0.0 **** -0.24
11937 H 52.941346709602485 24.27875087853044 113.18876826153917 H 0.0 **** 0.06
11938 H 54.07337660788777 24.261673453766996 111.81538329090458 H 0.0 **** 0.06
11939 H 53.45298477031915 25.809617021489963 112.43850633310063 H 0.0 **** 0.06
11940 H 52.36818404490043 24.70634789548579 111.55850846884977 H 0.0 **** 0.06
11941 C 79.69577361477145 80.46837133459098 61.18955062912244 C 0.0 **** -0.24
11942 H 80.53805929978809 80.6122266757524 61.86630488478693 H 0.0 **** 0.06
11943 H 78.90164619750026 81.17101300549498 61.44469416477858 H 0.0 **** 0.06
11944 H 79.32355479494579 79.44874804596448 61.28533858651713 H 0.0 **** 0.06
11945 H 80.01988113963472 80.6428603886189 60.16453712716873 H 0.0 **** 0.06
11946 C 65.28696419308056 40.16702485716229 67.86979510018058 C 0.0 **** -0.24
11947 H 65.37172898612914 41.1209538142312 68.39078199583231 H 0.0 **** 0.06
11948 H 64.23683014811945 39.88071835277833 67.80761033764308 H 0.0 **** 0.06
11949 H 65.84120596522453 39.40473514708657 68.41675148927385 H 0.0 **** 0.06
11950 H 65.69855461057796 40.26466703162282 66.86500397597202 H 0.0 **** 0.06
11951 C 127.96465127765072 151.52595423853296 163.05561879960482 C 0.0 **** -0.24
11952 H 128.77207912587818 151.08712295156397 162.4690352657413 H 0.0 **** 0.06
11953 H 127.00515359294391 151.19075842343148 162.6590549592763 H 0.0 **** 0.06
11954 H 128.02271562829208 152.61260640814487 162.99739137088855 H 0.0 **** 0.06
11955 H 128.05843753226523 151.21151302062415 164.09441409920535 H 0.0 **** 0.06
11956 C 67.47863923846346 33.29224020908896 123.75350358327717 C 0.0 **** -0.24
11957 H 68.03845386185658 34.17800093777561 124.05444442092994 H 0.0 **** 0.06
11958 H 67.61576095984908 32.50598306479151 124.49518421671189 H 0.0 **** 0.06
11959 H 67.84083173873998 32.94561007238315 122.78528923857851 H 0.0 **** 0.06
11960 H 66.41990896650492 33.540825959627455 123.67744963238769 H 0.0 **** 0.06
11961 C 61.06967264805132 105.0764015126934 150.98204140384883 C 0.0 **** -0.24
11962 H 61.50729914787712 105.81247380057786 151.6566008875422 H 0.0 **** 0.06
11963 H 60.05407677932942 104.84723560723594 151.30538933920752 H 0.0 **** 0.06
11964 H 61.67007474717451 104.16657549247864 150.99891747438585 H 0.0 **** 0.06
11965 H 61.04717216184645 105.47911760899058 149.9702502798139 H 0.0 **** 0.06
11966 C 28.868255259436573 51.481059795305384 147.55935585605863 C 0.0 **** -0.24
11967 H 29.943214505586937 51.457226016120174 147.74056416529177 H 0.0 **** 0.06
11968 H 28.380658799230567 52.05520961093329 148.3466572666711 H 0.0 **** 0.06
11969 H 28.478198977298916 50.463592288872036 147.55577748511644 H 0.0 **** 0.06
11970 H 28.673019731342514 51.948226248519134 146.5935813072968 H 0.0 **** 0.06
11971 C 21.22561869487467 28.58296840684182 18.232528266641935 C 0.0 **** -0.24
11972 H 20.156138963896318 28.384419448300264 18.306853841179503 H 0.0 **** 0.06
11973 H 21.673298875013742 27.894455977875545 17.516429165883515 H 0.0 **** 0.06
11974 H 21.688737176473147 28.443628586842294 19.209865246418644 H 0.0 **** 0.06
11975 H 21.381499736585873 29.608428482885977 17.899032301838638 H 0.0 **** 0.06
11976 C 39.887896257421275 109.25504332669601 119.73975042963934 C 0.0 **** -0.24
11977 H 39.83767883851975 108.51956949007956 120.54269582273358 H 0.0 **** 0.06
11978 H 40.01166113668893 110.25085031030443 120.16681084575842 H 0.0 **** 0.06
11979 H 38.96650396239215 109.22169641503746 119.15863162236056 H 0.0 **** 0.06
11980 H 40.73525458580616 109.02910592428452 119.09167787322335 H 0.0 **** 0.06
11981 C 147.84754591138883 89.41851275292491 89.73912978820461 C 0.0 **** -0.24
11982 H 148.89192608950341 89.28101575769134 90.02137349818953 H 0.0 **** 0.06
11983 H 147.46319283117276 88.49426283866146 89.30772318086585 H 0.0 **** 0.06
11984 H 147.77319478886145 90.22074554532699 89.00467058146158 H 0.0 **** 0.06
11985 H 147.26332349087252 89.67910751369786 90.62110278084177 H 0.0 **** 0.06
11986 C 44.49987783053774 114.79970458985213 126.06402340508006 C 0.0 **** -0.24
11987 H 43.83667463966492 114.23999789905747 126.72406190674656 H 0.0 **** 0.06
11988 H 44.290507528462456 115.86536012086401 126.1573626989632 H 0.0 **** 0.06
11989 H 44.336337960442904 114.48632376900218 125.03345705823224 H 0.0 **** 0.06
11990 H 45.53657250942058 114.6072338737157 126.34284066584172 H 0.0 **** 0.06
11991 C 141.62037735270488 40.9807149951757 126.52364347086294 C 0.0 **** -0.24
11992 H 141.19628326140815 41.33712456861916 127.46201080453869 H 0.0 **** 0.06
11993 H 140.900185402708 40.33397413559453 126.02274960600764 H 0.0 **** 0.06
11994 H 142.5334665754461 40.42071805048715 126.72649159246768 H 0.0 **** 0.06
11995 H 141.85099014023376 41.83319005598065 125.88354588871198 H 0.0 **** 0.06
11996 C 53.07575440783296 128.91070360891288 127.29028087313156 C 0.0 **** -0.24
11997 H 52.27535998018118 128.69828637771096 127.9996753775232 H 0.0 **** 0.06
11998 H 53.071625472269574 128.15703738567953 126.50307377181173 H 0.0 **** 0.06
11999 H 54.03469400211425 128.89191360069705 127.80799087031141 H 0.0 **** 0.06
12000 H 52.91984028442559 129.89674045078687 126.85156796357978 H 0.0 **** 0.06
12001 C 1.0463208706826492 54.81947345680436 91.43687147225047 C 0.0 **** -0.24
12002 H 0.4597658552694668 54.466782309283076 92.28471166896892 H 0.0 **** 0.06
12003 H 0.39908343102703725 55.36690101897449 90.75043380739946 H 0.0 **** 0.06
12004 H 1.4875302554949315 53.96741561467019 90.9204951128996 H 0.0 **** 0.06
12005 H 1.8387154142149598 55.47894722333899 91.79299945543066 H 0.0 **** 0.06
12006 C 44.91567348044833 150.2825949498826 155.4331001106805 C 0.0 **** -0.24
12007 H 44.485822196290826 151.25661548954173 155.1996440883809 H 0.0 **** 0.06
12008 H 44.1404517109392 149.51892236853098 155.36219675839686 H 0.0 **** 0.06
12009 H 45.32030896078027 150.29658701129387 156.44439737770446 H 0.0 **** 0.06
12010 H 45.71338421813283 150.05820576781304 154.7249123294368 H 0.0 **** 0.06
12011 C 43.070757783416 75.6267797210972 95.58230579123011 C 0.0 **** -0.24
12012 H 42.331318892115945 75.59095956509967 94.78253964691703 H 0.0 **** 0.06
12013 H 44.060714765827115 75.43148077627512 95.1709904281114 H 0.0 **** 0.06
12014 H 42.832149863914424 74.87013291067971 96.3304633640114 H 0.0 **** 0.06
12015 H 43.05731536761486 76.61297906378483 96.04567496920413 H 0.0 **** 0.06
12016 C 155.3953785958556 99.91438841779484 100.57333675859391 C 0.0 **** -0.24
12017 H 154.4744140986523 100.23028168070749 100.08319830856897 H 0.0 **** 0.06
12018 H 155.68142599853445 100.65468936369692 101.32075114214314 H 0.0 **** 0.06
12019 H 156.18839860509695 99.82250403368249 99.83114851915701 H 0.0 **** 0.06
12020 H 155.23730439780314 98.95131755238029 101.05703900426988 H 0.0 **** 0.06
12021 C 22.180420702004966 143.80366757075126 119.1907425996522 C 0.0 **** -0.24
12022 H 23.122064525847634 144.34637386601037 119.27667080947768 H 0.0 **** 0.06
12023 H 21.94194293492052 143.65684579100116 118.13683149935247 H 0.0 **** 0.06
12024 H 21.3860393142146 144.3779555782383 119.66728781924658 H 0.0 **** 0.06
12025 H 22.273014585346118 142.83478021901158 119.68151090583802 H 0.0 **** 0.06
12026 C 49.658426126895606 142.25908734632833 135.6511459919838 C 0.0 **** -0.24
12027 H 50.65619527567789 142.55787187588757 135.9723910446725 H 0.0 **** 0.06
12028 H 49.71107875431072 141.83787379935438 134.64706197513053 H 0.0 **** 0.06
12029 H 49.00308373187701 143.129805390326 135.6456436719339 H 0.0 **** 0.06
12030 H 49.263372385206594 141.51179223335515 136.3395945540277 H 0.0 **** 0.06
12031 C 48.34639108617324 2.7381677318314814 105.65137637117192 C 0.0 **** -0.24
12032 H 49.11818152680502 1.9935127938990718 105.8438013378684 H 0.0 **** 0.06
12033 H 47.761601996835935 2.439523348396733 104.78075467334207 H 0.0 **** 0.06
12034 H 48.813208109747904 3.7045892868542296 105.46193484832577 H 0.0 **** 0.06
12035 H 47.69170438620651 2.8152764836452207 106.5201067412616 H 0.0 **** 0.06
12036 C 85.18568172401943 31.32758078572604 104.14593530762886 C 0.0 **** -0.24
12037 H 84.99275967726099 30.952954311018495 105.1509676109404 H 0.0 **** 0.06
12038 H 85.61707837037052 30.531731839152002 103.5381925449218 H 0.0 **** 0.06
12039 H 85.88237771284399 32.163938955745266 104.19706796036976 H 0.0 **** 0.06
12040 H 84.24945625330628 31.660756842384302 103.69747521417332 H 0.0 **** 0.06
12041 C 2.094185523018723 129.43445065473574 157.93637168813413 C 0.0 **** -0.24
12042 H 2.3088245475521205 130.4633868589995 157.65061622918216 H 0.0 **** 0.06
12043 H 2.412761587339361 128.7615844882763 157.1401190436282 H 0.0 **** 0.06
12044 H 1.023492915662871 129.32023029097297 158.1035987301644 H 0.0 **** 0.06
12045 H 2.6318090245544568 129.1926962227889 158.85314516985298 H 0.0 **** 0.06
12046 C 25.401287958766034 122.57544516702231 132.31036173885343 C 0.0 **** -0.24
12047 H 24.808990021075317 122.49242814020656 133.22149739031994 H 0.0 **** 0.06
12048 H 25.720827615259054 121.58331283000152 131.99258560869282 H 0.0 **** 0.06
12049 H 26.277361199333427 123.19523600088073 132.50321628906465 H 0.0 **** 0.06
12050 H 24.798923610557154 123.0328768747359 131.52504122963353 H 0.0 **** 0.06
12051 C 63.030922058284716 34.41025851099556 36.752772849954724 C 0.0 **** -0.24
12052 H 62.63473465660404 35.3853610931568 37.033274728176124 H 0.0 **** 0.06
12053 H 63.183569234726875 33.80831521954917 37.648475905571786 H 0.0 **** 0.06
12054 H 63.9820876437491 34.540132671443075 36.236556242127435 H 0.0 **** 0.06
12055 H 62.324705386755966 33.90695138877709 36.091814580209316 H 0.0 **** 0.06
12056 C 0.8503354283185587 109.70675585945781 124.72609593847415 C 0.0 **** -0.24
12057 H 0.7145583801913347 110.219602837259 123.77414929458152 H 0.0 **** 0.06
12058 H 0.018864972426541726 109.02194787970453 124.89176053070625 H 0.0 **** 0.06
12059 H 0.8831644894996273 110.44067656913299 125.53213535453042 H 0.0 **** 0.06
12060 H 1.7844938917358846 109.14566789932096 124.70675390169171 H 0.0 **** 0.06
12061 C 29.35155271582377 129.5573590505167 154.49419308942475 C 0.0 **** -0.24
12062 H 28.848914852855927 129.63002286788532 153.5299208283333 H 0.0 **** 0.06
12063 H 28.676228027537405 129.89496212773838 155.28186919995258 H 0.0 **** 0.06
12064 H 30.243821334810832 130.18365620086914 154.48674612082945 H 0.0 **** 0.06
12065 H 29.635596012806104 128.52077562069994 154.6777116917356 H 0.0 **** 0.06
12066 C 20.589230483664124 105.7958108237438 110.79077748541147 C 0.0 **** -0.24
12067 H 21.168411211001 105.20295582320975 110.08214886695333 H 0.0 **** 0.06
12068 H 20.315584528924376 105.17558413333504 111.64425835606278 H 0.0 **** 0.06
12069 H 19.686646154073912 106.16458717682252 110.30425270400474 H 0.0 **** 0.06
12070 H 21.18848367930488 106.63987525359812 111.13215660204696 H 0.0 **** 0.06
12071 C 36.4142637641238 70.08771753285328 78.02140499041445 C 0.0 **** -0.24
12072 H 37.44216919719251 70.28709503532534 77.72120532594329 H 0.0 **** 0.06
12073 H 35.87830202872436 71.03070698526989 78.13143126656968 H 0.0 **** 0.06
12074 H 36.41005691985022 69.55291036565455 78.97153996668186 H 0.0 **** 0.06
12075 H 35.9251958318216 69.47861248523151 77.26008672204074 H 0.0 **** 0.06
12076 C 140.98994096614962 90.32113803410157 125.93639315448769 C 0.0 **** -0.24
12077 H 141.53880043916337 91.26250378747241 125.9447975938046 H 0.0 **** 0.06
12078 H 140.17205284491138 90.37103437026357 126.65636904561 H 0.0 **** 0.06
12079 H 141.66203659486442 89.50620649139317 126.2037092179246 H 0.0 **** 0.06
12080 H 140.58530552626385 90.14590980465505 124.9391719614107 H 0.0 **** 0.06
12081 C 86.4517933218288 94.85342716164374 104.77037354355414 C 0.0 **** -0.24
12082 H 85.49055048175083 94.73069302061901 104.2715294970454 H 0.0 **** 0.06
12083 H 86.94185783901929 93.88232550844512 104.85836950849506 H 0.0 **** 0.06
12084 H 86.29447645157907 95.27182696773248 105.76514884442301 H 0.0 **** 0.06
12085 H 87.0801755997262 95.5271121325064 104.18783244818778 H 0.0 **** 0.06
12086 C 68.74925507896654 131.1019413528902 85.14569231705573 C 0.0 **** -0.24
12087 H 69.10298710459722 132.13279367470858 85.11524533210314 H 0.0 **** 0.06
12088 H 67.71775465409888 131.0602932567021 84.79614094771733 H 0.0 **** 0.06
12089 H 68.80183118322907 130.7294750573094 86.16891588953814 H 0.0 **** 0.06
12090 H 69.3763864243628 130.4842422325188 84.50131976381869 H 0.0 **** 0.06
12091 C 40.76086544950907 59.216646354481696 32.99520856346048 C 0.0 **** -0.24
12092 H 41.197830075348534 58.23276609035379 33.166157093541585 H 0.0 **** 0.06
12093 H 39.79770976803657 59.27950431740925 33.50293871336011 H 0.0 **** 0.06
12094 H 40.61817146105321 59.36939490606564 31.925831578406097 H 0.0 **** 0.06
12095 H 41.42875597562147 59.98424743728749 33.38665420628672 H 0.0 **** 0.06
12096 C 39.25848731145743 8.168301402554938 52.836044771603454 C 0.0 **** -0.24
12097 H 39.4239331081381 7.158868754610559 53.21122238664687 H 0.0 **** 0.06
12098 H 38.606389378681456 8.708970159589548 53.52170826390095 H 0.0 **** 0.06
12099 H 38.789179737023744 8.117122009206362 51.853062087616735 H 0.0 **** 0.06
12100 H 40.21301353344006 8.68731148526836 52.75643294397604 H 0.0 **** 0.06
12101 C 37.747634371755325 144.82384916727992 43.655079053726695 C 0.0 **** -0.24
12102 H 38.24877729608774 144.38301904201955 44.516392819357065 H 0.0 **** 0.06
12103 H 37.00591424522048 145.54652993607905 43.99759571821548 H 0.0 **** 0.06
12104 H 37.25328390293339 144.03976470999473 43.08131164256855 H 0.0 **** 0.06
12105 H 38.481947381947606 145.3270620211158 43.0269301464302 H 0.0 **** 0.06
12106 C 57.99262944787078 47.77005062007241 63.33504757000773 C 0.0 **** -0.24
12107 H 57.034665677734864 47.25744582735602 63.24825129031001 H 0.0 **** 0.06
12108 H 58.51571525843238 47.4147339498913 64.2245065303997 H 0.0 **** 0.06
12109 H 57.82429261800149 48.8445180160105 63.41746375886228 H 0.0 **** 0.06
12110 H 58.59642354633772 47.56366854237204 62.45124839293892 H 0.0 **** 0.06
12111 C 14.28646973584722 47.104687930052606 80.37415983535821 C 0.0 **** -0.24
12112 H 13.636064680346408 46.89634671444442 79.52430803943729 H 0.0 **** 0.06
12113 H 14.751552681503881 48.083036923761824 80.24323607220958 H 0.0 **** 0.06
12114 H 15.06044096068149 46.3400903754538 80.43667352856592 H 0.0 **** 0.06
12115 H 13.697692032271902 47.10183275318464 81.29085470623211 H 0.0 **** 0.06
12116 C 129.10762836800996 30.002378233862004 110.8856314296518 C 0.0 **** -0.24
12117 H 128.12144146503235 30.16675451594294 111.31970248738824 H 0.0 **** 0.06
12118 H 129.848414431098 30.582828947035402 111.43579762481176 H 0.0 **** 0.06
12119 H 129.10102340353382 30.316050588557133 109.8418623566364 H 0.0 **** 0.06
12120 H 129.35823296415685 28.943818493906015 110.94498151112526 H 0.0 **** 0.06
12121 C 32.61859185899294 91.76182579220882 21.797857345897057 C 0.0 **** -0.24
12122 H 32.97372809725283 92.04106757882455 20.80679020449952 H 0.0 **** 0.06
12123 H 31.528141625460826 91.77011132975291 21.80846531432195 H 0.0 **** 0.06
12124 H 32.99521161581069 92.47348716708403 22.53311820209626 H 0.0 **** 0.06
12125 H 32.976713308749936 90.76182460942937 22.04316435238124 H 0.0 **** 0.06
12126 C 115.13582416449253 111.11023793769414 129.27951814765117 C 0.0 **** -0.24
12127 H 114.44802809864382 111.4919424411006 128.52513754594173 H 0.0 **** 0.06
12128 H 114.63014832220264 110.35690894521406 129.88455059551904 H 0.0 **** 0.06
12129 H 115.46403482547663 111.92977029298868 129.91868505084778 H 0.0 **** 0.06
12130 H 116.00009453042779 110.66246408029349 128.78968435750699 H 0.0 **** 0.06
12131 C 109.2082577679196 87.18638693546234 4.56347158168699 C 0.0 **** -0.24
12132 H 109.25126006252103 86.78656177079904 5.575665950508878 H 0.0 **** 0.06
12133 H 108.71087926428342 88.1575800934944 4.57682862598277 H 0.0 **** 0.06
12134 H 108.6496489001915 86.50116787892233 3.925909951804009 H 0.0 **** 0.06
12135 H 110.21990265499772 87.30156373018946 4.1742791021686685 H 0.0 **** 0.06
12136 C 146.70436763242733 8.553062064443083 161.73736062719118 C 0.0 **** -0.24
12137 H 146.61294032652796 9.399857374935323 161.05635501884558 H 0.0 **** 0.06
12138 H 147.72035942764134 8.509528579270693 162.12874450512066 H 0.0 **** 0.06
12139 H 146.480457894578 7.63103365984432 161.20082180507745 H 0.0 **** 0.06
12140 H 146.0013920278553 8.673180041977105 162.56218415495212 H 0.0 **** 0.06
12141 C 122.9812757306608 139.7574452817402 88.6930064484695 C 0.0 **** -0.24
12142 H 121.99015521206803 139.44004524199914 89.01676280998907 H 0.0 **** 0.06
12143 H 122.88710698636518 140.42947052087484 87.84009134315477 H 0.0 **** 0.06
12144 H 123.56609480229793 138.88353426674445 88.4052217010323 H 0.0 **** 0.06
12145 H 123.48140915200764 140.27493686418632 89.51158318631286 H 0.0 **** 0.06
12146 C 116.92216040990354 45.852029603748406 121.46538930686097 C 0.0 **** -0.24
12147 H 117.85556610539331 46.326520397208014 121.16261191463974 H 0.0 **** 0.06
12148 H 116.61437065960004 45.13592439751898 120.70281230210617 H 0.0 **** 0.06
12149 H 116.15014522560205 46.61212646248953 121.58426390431123 H 0.0 **** 0.06
12150 H 117.06985604009176 45.33261047681356 122.41306998926146 H 0.0 **** 0.06
12151 C 98.97399170490078 1.8801612104741992 103.5416109699247 C 0.0 **** -0.24
12152 H 98.3424854340085 1.391032762212717 104.28397481500451 H 0.0 **** 0.06
12153 H 99.03492077239767 2.9463391584163787 103.76289614245073 H 0.0 **** 0.06
12154 H 98.54487227475056 1.7380588653390703 102.54981044000704 H 0.0 **** 0.06
12155 H 99.97307446791123 1.4449134270527964 103.57164208484488 H 0.0 **** 0.06
12156 C 36.504990597237224 153.8907705071188 50.21537002935318 C 0.0 **** -0.24
12157 H 36.03480354680363 153.36734638520096 49.383460687825846 H 0.0 **** 0.06
12158 H 35.834496935842424 154.67049371103303 50.579288821793455 H 0.0 **** 0.06
12159 H 37.43874561214784 154.34212583090095 49.87984089100863 H 0.0 **** 0.06
12160 H 36.70995989725583 153.18415009960736 51.01921144595525 H 0.0 **** 0.06
12161 C 44.756734567949806 55.82323994545091 128.20573311258016 C 0.0 **** -0.24
12162 H 44.273049894684945 54.90136587619453 127.88384155862795 H 0.0 **** 0.06
12163 H 45.737867808331956 55.59204145610124 128.62186616034575 H 0.0 **** 0.06
12164 H 44.144593781939236 56.30757534191211 128.96670929235543 H 0.0 **** 0.06
12165 H 44.87135368556493 56.49134269125858 127.35288025467034 H 0.0 **** 0.06
12166 C 35.97214791721487 34.45687886472808 85.0000425117337 C 0.0 **** -0.24
12167 H 36.75538757812238 35.21362902302123 85.04777820927289 H 0.0 **** 0.06
12168 H 36.42299226691294 33.464611543073204 85.02569018265744 H 0.0 **** 0.06
12169 H 35.40674587736842 34.5767463533721 84.07613442058958 H 0.0 **** 0.06
12170 H 35.30282420488396 34.57365236127248 85.85327379383183 H 0.0 **** 0.06
12171 C 36.82527894804309 155.5959771389298 110.40987861783657 C 0.0 **** -0.24
12172 H 37.18435050610367 154.60536868369041 110.1285951337772 H 0.0 **** 0.06
12173 H 35.757470571058775 155.66693917804216 110.20342400281336 H 0.0 **** 0.06
12174 H 37.35903549712418 156.35117880963517 109.8337855621534 H 0.0 **** 0.06
12175 H 37.00237870972535 155.7580295652216 111.4728238293178 H 0.0 **** 0.06
12176 C 118.03996842349926 149.62162424628747 147.96331292711804 C 0.0 **** -0.24
12177 H 117.87800869385512 148.7017250825826 147.40157328340632 H 0.0 **** 0.06
12178 H 118.79836522445981 150.22402267958734 147.4638829951195 H 0.0 **** 0.06
12179 H 118.374658213602 149.37726487004846 148.97162642265934 H 0.0 **** 0.06
12180 H 117.10684569574394 150.18336232838024 148.0162108199324 H 0.0 **** 0.06
12181 C 129.0002337271229 124.30806582222914 19.734641669330102 C 0.0 **** -0.24
12182 H 128.53502155080312 124.83482277890755 18.90164071737641 H 0.0 **** 0.06
12183 H 129.9692066103712 123.91712206084799 19.421261008267606 H 0.0 **** 0.06
12184 H 128.35897632851683 123.48389970116011 20.04649419501004 H 0.0 **** 0.06
12185 H 129.1378532517585 124.99688973369291 20.567842921999556 H 0.0 **** 0.06
12186 C 15.602099240370876 16.7300477623495 100.39369518219652 C 0.0 **** -0.24
12187 H 15.651099934830086 17.795780554951506 100.16738247389796 H 0.0 **** 0.06
12188 H 16.607703896202793 16.352861645079003 100.58036004929909 H 0.0 **** 0.06
12189 H 15.165193072998875 16.19870365336925 99.54858319297833 H 0.0 **** 0.06
12190 H 14.985434257372447 16.576041658693015 101.2792996539113 H 0.0 **** 0.06
12191 C 127.75266179212744 88.90324726933937 62.116225028019485 C 0.0 **** -0.24
12192 H 128.7189020593177 89.27967923559747 62.451999618557096 H 0.0 **** 0.06
12193 H 127.37613650369542 88.17753806652695 62.83616368848084 H 0.0 **** 0.06
12194 H 127.86829736221998 88.42525264737728 61.14343192850333 H 0.0 **** 0.06
12195 H 127.04907227803201 89.73184528732803 62.032930432221605 H 0.0 **** 0.06
12196 C 82.12861353373087 130.5067414833917 25.572774759558058 C 0.0 **** -0.24
12197 H 82.5309299207652 130.2387629359663 24.596316440033576 H 0.0 **** 0.06
12198 H 81.05384389821053 130.32480791432042 25.585434601513953 H 0.0 **** 0.06
12199 H 82.31967645682283 131.5628094516624 25.766767804348973 H 0.0 **** 0.06
12200 H 82.60968994344114 129.90343355575845 26.34169077867932 H 0.0 **** 0.06
12201 C 61.60847987324348 158.60530656282398 91.43558379966608 C 0.0 **** -0.24
12202 H 62.48793617446108 159.1472935661928 91.08709768166075 H 0.0 **** 0.06
12203 H 61.18293513193407 158.0351090745947 90.6090782701205 H 0.0 **** 0.06
12204 H 60.86860330932873 159.3146094457544 91.80777592088326 H 0.0 **** 0.06
12205 H 61.895240398461 157.9247284969349 92.23806295341907 H 0.0 **** 0.06
12206 C 117.17154981034076 36.762136112888115 90.52620817658635 C 0.0 **** -0.24
12207 H 116.46663771843933 36.54754428044458 89.72264227315992 H 0.0 **** 0.06
12208 H 116.66613713108597 36.6647411345283 91.48791351042476 H 0.0 **** 0.06
12209 H 117.55001791379803 37.77772024023561 90.41585151664304 H 0.0 **** 0.06
12210 H 118.00155199863826 36.05745146403697 90.47904084539422 H 0.0 **** 0.06
12211 C 28.64388248003143 149.71629000020266 47.57545574938263 C 0.0 **** -0.24
12212 H 28.934008347361384 148.9606004451056 46.84563308143447 H 0.0 **** 0.06
12213 H 28.581857928778206 149.26059059609372 48.56382909622894 H 0.0 **** 0.06
12214 H 27.67208725911864 150.12853051240353 47.303410400771185 H 0.0 **** 0.06
12215 H 29.386194519185054 150.51327053473852 47.58777107851648 H 0.0 **** 0.06
12216 C 77.15495238494636 70.08399798057101 108.46273859498541 C 0.0 **** -0.24
12217 H 77.48931495873002 70.19118740047497 107.43106571108382 H 0.0 **** 0.06
12218 H 76.9477889296088 71.06865344609577 108.88114241364548 H 0.0 **** 0.06
12219 H 77.9344253520423 69.59626986470258 109.04819571376265 H 0.0 **** 0.06
12220 H 76.24815732081974 69.47856742959317 108.4900417045267 H 0.0 **** 0.06
12221 C 91.89748030826628 34.71445600402248 124.90243014606011 C 0.0 **** -0.24
12222 H 91.81547938488812 34.52698272272872 123.83163068550164 H 0.0 **** 0.06
12223 H 91.07106293993573 34.22696282794371 125.42014880418853 H 0.0 **** 0.06
12224 H 91.8594658132955 35.78806235722044 125.0874224657874 H 0.0 **** 0.06
12225 H 92.84281450964887 34.31579743440858 125.26962822324018 H 0.0 **** 0.06
12226 C 159.42693864479617 155.12853725893484 108.24289730043762 C 0.0 **** -0.24
12227 H 159.16432155531777 154.75222321197333 109.23163834889115 H 0.0 **** 0.06
12228 H 159.69129701330223 154.29343324030683 107.59439149538744 H 0.0 **** 0.06
12229 H 160.27568774953414 155.80782903766092 108.32662611399365 H 0.0 **** 0.06
12230 H 158.5767692939698 155.66267694498902 107.8198515639292 H 0.0 **** 0.06
12231 C 151.87504985516387 39.67200416059751 127.72099867553135 C 0.0 **** -0.24
12232 H 151.1575383000794 39.823522859853824 128.52859583073612 H 0.0 **** 0.06
12233 H 152.28197012715265 38.662209647011764 127.781874079614 H 0.0 **** 0.06
12234 H 152.68416949270159 40.3968124141918 127.81507995336821 H 0.0 **** 0.06
12235 H 151.3751097541364 39.8063309526608 126.76164937978515 H 0.0 **** 0.06
12236 C 72.8705475371197 115.66820893278864 26.164044718979937 C 0.0 **** -0.24
12237 H 72.68491160923138 114.73653329648269 26.69826439281932 H 0.0 **** 0.06
12238 H 73.7258766122695 115.54086846315903 25.499518216092987 H 0.0 **** 0.06
12239 H 73.08204232987138 116.46210311386966 26.880521407278152 H 0.0 **** 0.06
12240 H 71.9908423518925 115.93165983496814 25.5779711528442 H 0.0 **** 0.06
12241 C 33.544479019153584 91.09428582426686 68.5517360467244 C 0.0 **** -0.24
12242 H 33.456904709232276 90.503909239092 67.63902244500369 H 0.0 **** 0.06
12243 H 33.54684110718 92.15413474295673 68.29858880919569 H 0.0 **** 0.06
12244 H 34.47431147956374 90.83854376269177 69.06025985551291 H 0.0 **** 0.06
12245 H 32.70057282219679 90.87762118411975 69.20686399357464 H 0.0 **** 0.06
12246 C 126.2059066755163 62.52861086715842 60.875267263792395 C 0.0 **** -0.24
12247 H 126.95993490618343 63.315997012801915 60.88077679255997 H 0.0 **** 0.06
12248 H 125.21461481245865 62.975430138435314 60.80208377043138 H 0.0 **** 0.06
12249 H 126.27813448422182 61.95145617819938 61.79782918859311 H 0.0 **** 0.06
12250 H 126.37296933938956 61.871174645493966 60.02169971811678 H 0.0 **** 0.06
12251 C 49.078687169104825 26.163144187581793 43.244431319886544 C 0.0 **** -0.24
12252 H 49.42327552077168 25.413201097410763 43.95661464819099 H 0.0 **** 0.06
12253 H 49.29391672726314 27.158797454049306 43.63461425158347 H 0.0 **** 0.06
12254 H 48.004603172819486 26.055132523349073 43.094852267247745 H 0.0 **** 0.06
12255 H 49.593896003244026 26.02575848266966 42.29364749201858 H 0.0 **** 0.06
12256 C 129.0388985356954 53.46359452385258 99.23754180289541 C 0.0 **** -0.24
12257 H 128.83139499778764 53.74393554191931 100.2703457814967 H 0.0 **** 0.06
12258 H 128.26084295981656 53.86501234269724 98.58821129189806 H 0.0 **** 0.06
12259 H 129.05822176724024 52.3773516165129 99.15256064451381 H 0.0 **** 0.06
12260 H 130.00638616310482 53.86872747496034 98.93915971281382 H 0.0 **** 0.06
12261 C 41.74009254587044 149.6142601180535 99.41842790728538 C 0.0 **** -0.24
12262 H 42.55401879802018 148.88948757774523 99.44082616470124 H 0.0 **** 0.06
12263 H 41.471383553343955 149.82617732358185 98.38308571276488 H 0.0 **** 0.06
12264 H 42.05970220253968 150.5356045539876 99.9061214348653 H 0.0 **** 0.06
12265 H 40.87562842362243 149.20726155156888 99.94287409207749 H 0.0 **** 0.06
12266 C 17.2638422526216 129.72517626555242 9.150883503632826 C 0.0 **** -0.24
12267 H 17.64971312730188 130.4454419485211 8.429251409093638 H 0.0 **** 0.06
12268 H 18.08466556434024 129.34243407737262 9.756258034436996 H 0.0 **** 0.06
12269 H 16.787613197100086 128.90022541359372 8.61941489159318 H 0.0 **** 0.06
12270 H 16.532025678143498 130.21245101443708 9.795123889191984 H 0.0 **** 0.06
12271 C 99.00788928662365 42.95770353799537 32.11367436810482 C 0.0 **** -0.24
12272 H 99.40242000320316 41.94338250334944 32.16687385127641 H 0.0 **** 0.06
12273 H 98.57561636804985 43.22995418099882 33.076288284574375 H 0.0 **** 0.06
12274 H 98.23952067723013 43.008297514822615 31.34200553032943 H 0.0 **** 0.06
12275 H 99.8152115199556 43.6486957570347 31.86898384682261 H 0.0 **** 0.06
12276 C 26.68943883721522 42.03685570951741 161.7137454584518 C 0.0 **** -0.24
12277 H 27.199611775909545 41.102571253270796 161.47791076240287 H 0.0 **** 0.06
12278 H 26.180109590667428 42.40764081798949 160.82419951781662 H 0.0 **** 0.06
12279 H 27.4183802305231 42.77442820816236 162.05006840107035 H 0.0 **** 0.06
12280 H 25.959356112729097 41.860866955844145 162.5039176155309 H 0.0 **** 0.06
12281 C 52.5141253509597 83.73423576045414 144.76638018611564 C 0.0 **** -0.24
12282 H 52.60129100172138 84.67974398483314 145.3022217869697 H 0.0 **** 0.06
12283 H 52.785831436474695 82.91423558690254 145.43151805933633 H 0.0 **** 0.06
12284 H 53.18293778649996 83.74147665302715 143.90644744830237 H 0.0 **** 0.06
12285 H 51.48635400670997 83.60278454775428 144.4271523635122 H 0.0 **** 0.06
12286 C 130.87109990137884 129.4385812495059 160.50928550263475 C 0.0 **** -0.24
12287 H 130.13196375677762 129.284121501212 161.2942834328821 H 0.0 **** 0.06
12288 H 131.0953997982394 130.50285459247036 160.42604657905918 H 0.0 **** 0.06
12289 H 130.4743694889845 129.0753294115109 159.56136518326392 H 0.0 **** 0.06
12290 H 131.78204714227178 128.8932861527113 160.75555614469042 H 0.0 **** 0.06
12291 C 21.796715019250712 130.01969379656043 52.98409258039746 C 0.0 **** -0.24
12292 H 21.005512299740502 130.57349974029594 52.479217274870905 H 0.0 **** 0.06
12293 H 21.503903371955857 128.97458861123644 53.08194619723031 H 0.0 **** 0.06
12294 H 21.964293755189942 130.4455628317365 53.97320216910326 H 0.0 **** 0.06
12295 H 22.715080808548862 130.08634749394872 52.399600956141896 H 0.0 **** 0.06
12296 C 61.58606142014287 99.91182452483716 1.032831150969507 C 0.0 **** -0.24
12297 H 61.21732565987338 100.93589004872968 1.0855907794326072 H 0.0 **** 0.06
12298 H 61.19504063668131 99.34075703701956 1.875127143186333 H 0.0 **** 0.06
12299 H 62.67534162745733 99.91606067830492 1.0716968117398196 H 0.0 **** 0.06
12300 H 61.25674715290302 99.45497138790302 0.10025560814192858 H 0.0 **** 0.06
12301 C 74.56206477076499 116.61185298815639 68.71192314603799 C 0.0 **** -0.24
12302 H 74.03976906763937 117.48314837042176 68.31606025568668 H 0.0 **** 0.06
12303 H 74.23903455258494 116.4286755241501 69.73700429823394 H 0.0 **** 0.06
12304 H 75.63610317014147 116.79396858732787 68.6960408556221 H 0.0 **** 0.06
12305 H 74.33158796007375 115.74082883131746 68.09708311317102 H 0.0 **** 0.06
12306 C 4.706364759384201 120.67983396721218 94.38972638663586 C 0.0 **** -0.24
12307 H 4.265723822522659 120.63633926852796 93.39340081207303 H 0.0 **** 0.06
12308 H 5.434543560580238 119.87618174875223 94.50057587834851 H 0.0 **** 0.06
12309 H 3.921620944113613 120.56552129742141 95.13809437049144 H 0.0 **** 0.06
12310 H 5.20187699524422 121.6413661498926 94.52647931012456 H 0.0 **** 0.06
12311 C 72.47885891085613 109.56466961810494 77.34740385221995 C 0.0 **** -0.24
12312 H 73.08830121208572 109.76893863441148 78.22787594981699 H 0.0 **** 0.06
12313 H 71.47030299302271 109.293143097707 77.65923901181749 H 0.0 **** 0.06
12314 H 72.91934507830443 108.7417719354419 76.78362976265946 H 0.0 **** 0.06
12315 H 72.43888397624755 110.45500195342981 76.71899457002252 H 0.0 **** 0.06
12316 C 141.09126209523032 18.821306592988265 91.09083780398133 C 0.0 **** -0.24
12317 H 140.72475689491512 17.816308206515373 91.3004208242555 H 0.0 **** 0.06
12318 H 140.27484396497923 19.535926657166925 91.19811536589997 H 0.0 **** 0.06
12319 H 141.47755746245448 18.861679757065787 90.07174419094271 H 0.0 **** 0.06
12320 H 141.8873546514759 19.07107583799319 91.7909126330066 H 0.0 **** 0.06
12321 C 44.61914498349206 131.07651703197882 17.117704185471084 C 0.0 **** -0.24
12322 H 44.57664544076643 130.9541069837303 16.035528867615625 H 0.0 **** 0.06
12323 H 45.64045308327904 130.91126046546412 17.461698236059767 H 0.0 **** 0.06
12324 H 43.95442242422118 130.3542707689494 17.59106883833209 H 0.0 **** 0.06
12325 H 44.30498786927146 132.08629358461815 17.381532676359626 H 0.0 **** 0.06
12326 C 144.8189479580893 52.94862774983727 135.8949437398381 C 0.0 **** -0.24
12327 H 145.10546182239517 52.194671665624014 135.16171943157605 H 0.0 **** 0.06
12328 H 145.33239852290407 53.88391023048547 135.6736045592323 H 0.0 **** 0.06
12329 H 145.0962616109859 52.608548661518626 136.89251137930458 H 0.0 **** 0.06
12330 H 143.7407183005438 53.10677680065501 135.85108508245912 H 0.0 **** 0.06
12331 C 151.17826316373498 63.286702511768 120.15328867950842 C 0.0 **** -0.24
12332 H 150.08810300310347 63.268449770531845 120.19037748587431 H 0.0 **** 0.06
12333 H 151.5587282732786 62.265231614384334 120.14701452990948 H 0.0 **** 0.06
12334 H 151.5608690383219 63.811677484049454 121.02886328778033 H 0.0 **** 0.06
12335 H 151.50197658658118 63.80164628272328 119.25015008907806 H 0.0 **** 0.06
12336 C 113.5324298137649 146.17578807904164 131.59122857225094 C 0.0 **** -0.24
12337 H 113.11211096569556 145.17913079143352 131.72314578722555 H 0.0 **** 0.06
12338 H 113.07900010290078 146.64914459676777 130.71999440235135 H 0.0 **** 0.06
12339 H 114.60919399770148 146.09916799846235 131.44441211041513 H 0.0 **** 0.06
12340 H 113.32866387628835 146.77642182977183 132.4783257653129 H 0.0 **** 0.06
12341 C 117.22908393523761 162.62376109948647 67.35210157420717 C 0.0 **** -0.24
12342 H 116.20737389677313 163.00189903139182 67.39884755496146 H 0.0 **** 0.06
12343 H 117.7093163160259 162.75694193865053 68.32259353408654 H 0.0 **** 0.06
12344 H 117.78525673134229 163.1735050332724 66.59315607733244 H 0.0 **** 0.06
12345 H 117.21275441650911 161.56482237146633 67.09642025012363 H 0.0 **** 0.06
12346 C 81.21785480836014 158.23188694201778 162.23851022186645 C 0.0 **** -0.24
12347 H 80.55327680948385 157.6069279313578 161.64137104565975 H 0.0 **** 0.06
12348 H 81.05132366519557 159.28013639788864 161.99062656039604 H 0.0 **** 0.06
12349 H 82.25323534809692 157.96761925591824 162.02516177035076 H 0.0 **** 0.06
12350 H 81.01201473959561 158.07135672641246 163.2973982284838 H 0.0 **** 0.06
12351 C 43.98552983568278 35.543985592345905 92.12649604431947 C 0.0 **** -0.24
12352 H 44.13729771548316 36.46223358583018 92.69474248702977 H 0.0 **** 0.06
12353 H 42.93440948424589 35.45568102255061 91.852908494278 H 0.0 **** 0.06
12354 H 44.27722992187962 34.68804799983235 92.73584141521955 H 0.0 **** 0.06
12355 H 44.595762028350336 35.57227943423493 91.22392583827498 H 0.0 **** 0.06
12356 C 158.03255161876234 156.63930844945088 15.117459771288225 C 0.0 **** -0.24
12357 H 158.73442616126098 156.99904349785 15.87082005848248 H 0.0 **** 0.06
12358 H 158.5358636124982 155.9250770062613 14.465226407195928 H 0.0 **** 0.06
12359 H 157.67213755654916 157.48087532332883 14.52554696666337 H 0.0 **** 0.06
12360 H 157.1904853933909 156.1525945055538 15.608986829135745 H 0.0 **** 0.06
12361 C 73.50326473020229 91.71517021824047 10.480709812730488 C 0.0 **** -0.24
12362 H 73.84878404032764 90.81957420517648 9.963151042090779 H 0.0 **** 0.06
12363 H 72.46652208450732 91.91381617144678 10.208222489831961 H 0.0 **** 0.06
12364 H 74.12479482045099 92.56263933367633 10.192610379932638 H 0.0 **** 0.06
12365 H 73.57306955494519 91.56202834501127 11.557403220192974 H 0.0 **** 0.06
12366 C 15.778553278865786 10.295859055042428 66.99728751149799 C 0.0 **** -0.24
12367 H 16.654300299553142 9.683782316098643 67.21802750231105 H 0.0 **** 0.06
12368 H 15.649258312794586 11.040147688088268 67.78365391917751 H 0.0 **** 0.06
12369 H 14.895115843500264 9.660505913676644 66.94829269353407 H 0.0 **** 0.06
12370 H 15.919904372914573 10.79815684451765 66.040669179209 H 0.0 **** 0.06
12371 C 100.17775080874708 50.2556713619323 26.07613366669449 C 0.0 **** -0.24
12372 H 99.26861332880756 50.00575169150008 26.62208423692914 H 0.0 **** 0.06
12373 H 101.01772377498617 49.69952997850933 26.494516371347004 H 0.0 **** 0.06
12374 H 100.37145214145602 51.32497388861664 26.163172555495436 H 0.0 **** 0.06
12375 H 100.05462878959389 49.99313132230962 25.02547313729906 H 0.0 **** 0.06
12376 C 59.63236095287478 48.709869021060456 134.5218893892441 C 0.0 **** -0.24
12377 H 59.774560667488245 49.520759820878936 133.80757488914247 H 0.0 **** 0.06
12378 H 60.3414481526375 47.90886902319613 134.30821379017965 H 0.0 **** 0.06
12379 H 58.61546403320081 48.32685090743473 134.43817782567817 H 0.0 **** 0.06
12380 H 59.798323454837885 49.08208884759992 135.53256524634344 H 0.0 **** 0.06
12381 C 130.3092420369702 33.95590841242222 142.79872239289108 C 0.0 **** -0.24
12382 H 130.4174378575666 33.26083330130456 143.63154957803707 H 0.0 **** 0.06
12383 H 130.8009298410936 34.89699322234112 143.04416958849802 H 0.0 **** 0.06
12384 H 129.25138873170727 34.135976600937795 142.61072332561605 H 0.0 **** 0.06
12385 H 130.76874766873584 33.527555195254806 141.90723712092887 H 0.0 **** 0.06
12386 C 147.85681791549035 148.27598357205437 131.2484979960585 C 0.0 **** -0.24
12387 H 146.79468809141378 148.368176925985 131.47492120977088 H 0.0 **** 0.06
12388 H 148.04011770668058 148.6075726561649 130.22653091357873 H 0.0 **** 0.06
12389 H 148.16224713047382 147.23485662554586 131.35478790481642 H 0.0 **** 0.06
12390 H 148.43027028621583 148.89482656641826 131.93941088139042 H 0.0 **** 0.06
12391 C 35.476857028579076 120.41931946739061 33.76971168585135 C 0.0 **** -0.24
12392 H 36.424335055185736 120.86635202801537 33.4658956433143 H 0.0 **** 0.06
12393 H 35.586817444690155 119.97481313412658 34.7589556840021 H 0.0 **** 0.06
12394 H 35.19369253125052 119.64861246862645 33.05269114843236 H 0.0 **** 0.06
12395 H 34.705858030321565 121.18914988167026 33.799419085244864 H 0.0 **** 0.06
12396 C 79.994951678208 134.26076516015718 2.0205998259929743 C 0.0 **** -0.24
12397 H 80.735216161145 134.21667961872825 2.819760530141707 H 0.0 **** 0.06
12398 H 80.30101133769699 133.6032505386849 1.20566245157994 H 0.0 **** 0.06
12399 H 79.9176889639025 135.28379746418744 1.6536308797589072 H 0.0 **** 0.06
12400 H 79.02711536732455 133.93837767287408 2.404111270161934 H 0.0 **** 0.06
12401 C 7.561645600191113 137.658603133354 62.83305568643311 C 0.0 **** -0.24
12402 H 8.272449050484752 136.98847960758292 63.31615998048744 H 0.0 **** 0.06
12403 H 7.9777367580385885 138.66709498270748 62.79988506388645 H 0.0 **** 0.06
12404 H 6.629720890598698 137.66845998953937 63.39761835797009 H 0.0 **** 0.06
12405 H 7.3688987653599085 137.31202039572378 61.817392877293 H 0.0 **** 0.06
12406 C 123.8151844150666 85.4439533205165 138.22660815886616 C 0.0 **** -0.24
12407 H 123.12751010918186 84.84526295706753 138.8239520756893 H 0.0 **** 0.06
12408 H 124.79188016379643 85.46553720491924 138.71111248054288 H 0.0 **** 0.06
12409 H 123.4305312691678 86.45987035669404 138.13922751943673 H 0.0 **** 0.06
12410 H 123.91105653288369 85.00379935389327 137.23391188770944 H 0.0 **** 0.06
12411 C 70.96951151791711 161.07635522147135 45.629578175636766 C 0.0 **** -0.24
12412 H 71.63676001174912 161.9356910221002 45.566599835374234 H 0.0 **** 0.06
12413 H 71.51472073724585 160.1725211371089 45.357690863134394 H 0.0 **** 0.06
12414 H 70.13298614551215 161.21625022997623 44.94484133050895 H 0.0 **** 0.06
12415 H 70.59372501405784 160.98214147978186 46.6479239423856 H 0.0 **** 0.06
12416 C 155.9821738144044 70.41594318622096 103.59421091859434 C 0.0 **** -0.24
12417 H 156.11828015013663 69.33761970663915 103.51319000966947 H 0.0 **** 0.06
12418 H 154.9358695660829 70.66558256718729 103.41581675022928 H 0.0 **** 0.06
12419 H 156.6070367078484 70.91683157901622 102.85399468444567 H 0.0 **** 0.06
12420 H 156.26909839762013 70.74391257477224 104.59317648915598 H 0.0 **** 0.06
12421 C 43.571782921533654 12.4610723417224 161.7685986227179 C 0.0 **** -0.24
12422 H 44.511380946408195 12.904885889795175 162.09517310537444 H 0.0 **** 0.06
12423 H 43.089026527170844 11.969771176778885 162.61430503255735 H 0.0 **** 0.06
12424 H 43.76863909494344 11.727576410337896 160.98728166074744 H 0.0 **** 0.06
12425 H 42.916644532060445 13.240900116579184 161.3792437547142 H 0.0 **** 0.06
12426 C 144.9721393555086 43.89455249404881 141.64418395914467 C 0.0 **** -0.24
12427 H 144.3091684044058 44.73287863463793 141.85448757068477 H 0.0 **** 0.06
12428 H 144.84662715478066 43.13069758018463 142.4120245905317 H 0.0 **** 0.06
12429 H 146.0057474892954 44.24091019445552 141.64013034385755 H 0.0 **** 0.06
12430 H 144.7263275435745 43.47374506799076 140.66850339665532 H 0.0 **** 0.06
12431 C 74.94610332556749 61.672505187214895 65.71183134800805 C 0.0 **** -0.24
12432 H 74.58465633414126 61.67606421085952 64.68349421330774 H 0.0 **** 0.06
12433 H 75.44179650690256 62.620113655481674 65.92658555117978 H 0.0 **** 0.06
12434 H 75.65460180750085 60.854270522901004 65.84385337433923 H 0.0 **** 0.06
12435 H 74.10481136799291 61.53913289059834 66.39175010852912 H 0.0 **** 0.06
12436 C 114.48770081797954 91.07057324172092 65.55875882994515 C 0.0 **** -0.24
12437 H 114.65303370228423 91.14847068796189 66.63359923611236 H 0.0 **** 0.06
12438 H 115.20349061129613 90.36931326110448 65.13114541431756 H 0.0 **** 0.06
12439 H 114.61876203301222 92.05035309446106 65.09918918183796 H 0.0 **** 0.06
12440 H 113.4740198330297 90.71543173197608 65.3721650559983 H 0.0 **** 0.06
12441 C 62.65196339368984 55.785999793092245 5.99801511461709 C 0.0 **** -0.24
12442 H 62.87814536568253 55.21166848480529 6.896414870194462 H 0.0 **** 0.06
12443 H 63.48161249950208 56.458621633891326 5.778545069649937 H 0.0 **** 0.06
12444 H 61.74452569035142 56.368304515557 6.1585015189168075 H 0.0 **** 0.06
12445 H 62.50318014847413 55.105704192562385 5.159469768443074 H 0.0 **** 0.06
12446 C 77.79202712183181 98.51093124491089 91.56454791147189 C 0.0 **** -0.24
12447 H 78.44073211093898 98.08203544492847 92.32798950780068 H 0.0 **** 0.06
12448 H 77.31748548740757 99.41111285641173 91.9548262113089 H 0.0 **** 0.06
12449 H 77.02560676634268 97.78522703575052 91.29082337538892 H 0.0 **** 0.06
12450 H 78.3839944552883 98.7640817742757 90.68510812606354 H 0.0 **** 0.06
12451 C 128.4497725585122 120.91104966983971 138.65488920450045 C 0.0 **** -0.24
12452 H 127.8811266617995 121.08291376455091 137.74040603604857 H 0.0 **** 0.06
12453 H 128.08262985926322 120.01083833937517 139.14658892974987 H 0.0 **** 0.06
12454 H 128.33218574500913 121.76482125472009 139.32160447557752 H 0.0 **** 0.06
12455 H 129.50385558321966 120.78570134841891 138.407717958092 H 0.0 **** 0.06
12456 C 75.64608261641422 78.04994962308648 98.3705579316291 C 0.0 **** -0.24
12457 H 75.73555256867056 78.89601408929936 99.05097020590634 H 0.0 **** 0.06
12458 H 74.60167587357878 77.74345155332868 98.30739652582497 H 0.0 **** 0.06
12459 H 76.24679311603659 77.21932516022565 98.74282099923983 H 0.0 **** 0.06
12460 H 76.00137426746757 78.34012780439292 97.38134544278205 H 0.0 **** 0.06
12461 C 126.99575890417273 127.54893460007219 101.04001067684993 C 0.0 **** -0.24
12462 H 127.76518001287519 128.32016135401156 101.0663979673457 H 0.0 **** 0.06
12463 H 126.66020246084264 127.40463067812493 100.0132014944814 H 0.0 **** 0.06
12464 H 126.1527468909305 127.85617724633724 101.65870086586759 H 0.0 **** 0.06
12465 H 127.40578333699929 126.61421233345362 101.42312830872143 H 0.0 **** 0.06
12466 C 134.1352794695033 50.812599685698046 78.06754073123182 C 0.0 **** -0.24
12467 H 133.57599702808986 51.64787412773542 77.64692975689081 H 0.0 **** 0.06
12468 H 134.6341203827562 51.13395645366036 78.98280707435168 H 0.0 **** 0.06
12469 H 134.87963185271823 50.4738965941318 77.34692876903833 H 0.0 **** 0.06
12470 H 133.451506907046 49.99451557329964 78.29447536923672 H 0.0 **** 0.06
12471 C 68.49004464058177 108.43876476594906 57.20473264971551 C 0.0 **** -0.24
12472 H 68.52827802853282 108.10170596731453 56.16926154672552 H 0.0 **** 0.06
12473 H 67.45566886803559 108.44248213130408 57.548486629509966 H 0.0 **** 0.06
12474 H 68.90059554169912 109.44664094530023 57.2739457440432 H 0.0 **** 0.06
12475 H 69.07841759524133 107.7643627469503 57.82773270583016 H 0.0 **** 0.06
12476 C 69.9759459256184 34.92214390367647 65.06742180100144 C 0.0 **** -0.24
12477 H 70.18621217374749 33.96865295370061 65.55142175384452 H 0.0 **** 0.06
12478 H 69.2466308910886 34.772509888977325 64.27126409071906 H 0.0 **** 0.06
12479 H 70.89679998682868 35.326554630439986 64.64557152014694 H 0.0 **** 0.06
12480 H 69.5762814117474 35.62203643598707 65.80159997451636 H 0.0 **** 0.06
12481 C 62.16564081938026 74.55925528983875 127.38486135061535 C 0.0 **** -0.24
12482 H 61.74866507700074 73.84322282351438 128.0927042559104 H 0.0 **** 0.06
12483 H 62.912846810970734 74.06441957839098 126.76375370582349 H 0.0 **** 0.06
12484 H 62.63235146366782 75.37975213064185 127.93112868908628 H 0.0 **** 0.06
12485 H 61.369116688545944 74.9510845017048 126.75269600919154 H 0.0 **** 0.06
12486 C 22.64116269948117 30.068840748380566 138.91406609795115 C 0.0 **** -0.24
12487 H 21.67884366898268 29.565280924673473 138.81568175039385 H 0.0 **** 0.06
12488 H 22.478518851370993 31.111034714597622 139.19001644042393 H 0.0 **** 0.06
12489 H 23.172500300301785 30.02382717946331 137.96390139643572 H 0.0 **** 0.06
12490 H 23.232503544019217 29.575979614080502 139.68487458436695 H 0.0 **** 0.06
12491 C 47.286319585728336 8.989335122578382 97.45346642303659 C 0.0 **** -0.24
12492 H 47.33311415152696 8.760442388446592 98.51789313502698 H 0.0 **** 0.06
12493 H 47.873607657766 8.256398849915456 96.89822047218308 H 0.0 **** 0.06
12494 H 47.688968752589915 9.986208393692664 97.27744611636922 H 0.0 **** 0.06
12495 H 46.24939017320543 8.95202723214669 97.11939102099925 H 0.0 **** 0.06
12496 C 145.28074798090435 72.00254834681641 156.39607123339317 C 0.0 **** -0.24
12497 H 144.60736085233734 72.8321964967655 156.6123941220269 H 0.0 **** 0.06
12498 H 144.71429247770692 71.07139354757572 156.37347104300588 H 0.0 **** 0.06
12499 H 146.0454335839745 71.94381924957094 157.17152769282072 H 0.0 **** 0.06
12500 H 145.75589734570292 72.16327005980747 155.42883215267375 H 0.0 **** 0.06
12501 C 158.64326457596914 66.23532865838581 146.86362371285207 C 0.0 **** -0.24
12502 H 158.69603167674035 66.40296686034318 145.78789748310135 H 0.0 **** 0.06
12503 H 158.0230549517886 65.36137197055513 147.06442362883828 H 0.0 **** 0.06
12504 H 158.20618987540388 67.10994604346709 147.3463172163569 H 0.0 **** 0.06
12505 H 159.64574781277653 66.06794228960024 147.25568235270137 H 0.0 **** 0.06
12506 C 36.81342879011882 77.56750376622848 57.3111592464399 C 0.0 **** -0.24
12507 H 36.830456227794855 78.58628104743146 56.92425258160836 H 0.0 **** 0.06
12508 H 35.80668254785263 77.1610668854548 57.217335452416364 H 0.0 **** 0.06
12509 H 37.108046476599924 77.57287934943764 58.36119039683882 H 0.0 **** 0.06
12510 H 37.50928513718037 76.95157178957967 56.742355615265126 H 0.0 **** 0.06
12511 C 82.98394863382853 74.35790826284557 35.10256379415699 C 0.0 **** -0.24
12512 H 83.56906547200663 73.53210588274504 34.69678602652516 H 0.0 **** 0.06
12513 H 82.22216651389857 74.6514823248695 34.38042521733257 H 0.0 **** 0.06
12514 H 83.64182656801768 75.2043701971914 35.30126883667273 H 0.0 **** 0.06
12515 H 82.50546421309286 74.04288322020841 36.029339768890054 H 0.0 **** 0.06
12516 C 40.32436269791607 14.648214839186437 79.01409594762828 C 0.0 **** -0.24
12517 H 39.939227521457056 13.80957217130782 78.43402851346143 H 0.0 **** 0.06
12518 H 41.41267389299303 14.667542167332897 78.94634573230323 H 0.0 **** 0.06
12519 H 40.02696033843277 14.535534614287599 80.05639285449594 H 0.0 **** 0.06
12520 H 39.91958386429128 15.57921008219489 78.61951800278406 H 0.0 **** 0.06
12521 C 74.24009463606075 145.73844132362564 127.0875124512329 C 0.0 **** -0.24
12522 H 75.11689749867496 146.33506843977807 127.33919614156389 H 0.0 **** 0.06
12523 H 73.33787522124899 146.3043090301813 127.31840789189073 H 0.0 **** 0.06
12524 H 74.24996757266179 144.81633704167035 127.66866998125636 H 0.0 **** 0.06
12525 H 74.25778389500616 145.49755300448825 126.02484752357338 H 0.0 **** 0.06
12526 C 109.25721313378884 99.21613418092002 76.69921271582359 C 0.0 **** -0.24
12527 H 110.15002478067234 99.80885463243752 76.49719608330241 H 0.0 **** 0.06
12528 H 108.76026713474215 99.5996716853794 77.59001712596097 H 0.0 **** 0.06
12529 H 109.54017634251636 98.17684758818811 76.85932513798846 H 0.0 **** 0.06
12530 H 108.57828306837757 99.28102481757915 75.84796241290712 H 0.0 **** 0.06
12531 C 155.7027488555288 8.528956248261686 38.20984074290686 C 0.0 **** -0.24
12532 H 155.7213447816786 8.97548956447146 37.21609428639317 H 0.0 **** 0.06
12533 H 155.56485522825383 9.311860033308733 38.95647111081951 H 0.0 **** 0.06
12534 H 156.64431762859522 8.011751205012594 38.393753868951165 H 0.0 **** 0.06
12535 H 154.8791021143581 7.818035105587548 38.271865068089596 H 0.0 **** 0.06
12536 C 27.36372212657173 125.23372491619457 2.441766007444585 C 0.0 **** -0.24
12537 H 27.38308807644603 126.31977438187624 2.532244584240118 H 0.0 **** 0.06
12538 H 26.935023861793297 124.8018669460744 3.346436867899797 H 0.0 **** 0.06
12539 H 28.379283960474908 124.86225087722275 2.307103327361858 H 0.0 **** 0.06
12540 H 26.756003673963335 124.95177027079447 1.5808306008193824 H 0.0 **** 0.06
12541 C 124.42045987981851 98.21290970975971 105.1667811970542 C 0.0 **** -0.24
12542 H 125.38754402523818 97.7477492772324 104.97285616587018 H 0.0 **** 0.06
12543 H 124.49948003901446 98.86261583014183 106.03825960727349 H 0.0 **** 0.06
12544 H 123.67681688560549 97.4394175687492 105.35554248905669 H 0.0 **** 0.06
12545 H 124.1211724148435 98.80161311479642 104.29953487973543 H 0.0 **** 0.06
12546 C 74.219108790331 136.97518778371472 147.82901094504226 C 0.0 **** -0.24
12547 H 73.5541452508474 136.4352911056528 148.5030583626219 H 0.0 **** 0.06
12548 H 73.80471854009846 137.9626539916244 147.62521430157116 H 0.0 **** 0.06
12549 H 74.31835625481904 136.42161098483683 146.89570525988296 H 0.0 **** 0.06
12550 H 75.19898206308295 137.08211312425288 148.29491245105373 H 0.0 **** 0.06
12551 C 65.57767895013966 48.235810716087116 98.23379266587264 C 0.0 **** -0.24
12552 H 66.2138315688209 47.9814348518355 97.3856537382826 H 0.0 **** 0.06
12553 H 64.73532470979887 48.83553271996624 97.88851347725443 H 0.0 **** 0.06
12554 H 66.15550948079319 48.803714673925526 98.96285632799999 H 0.0 **** 0.06
12555 H 65.20801290291044 47.32094742368423 98.69655179948177 H 0.0 **** 0.06
12556 C 76.93200663761863 120.27718477755951 149.83390498562372 C 0.0 **** -0.24
12557 H 75.84764652323605 120.17333412154773 149.8196220947998 H 0.0 **** 0.06
12558 H 77.27765527021347 120.62032780540395 148.8590846315043 H 0.0 **** 0.06
12559 H 77.3856143716388 119.31174661587815 150.06104167429763 H 0.0 **** 0.06
12560 H 77.21763505842095 121.00135469210906 150.59722091807834 H 0.0 **** 0.06
12561 C 25.288881030287683 52.792616071188405 137.2542487433473 C 0.0 **** -0.24
12562 H 26.3290738160604 52.83044076852758 137.58024592892482 H 0.0 **** 0.06
12563 H 24.635281405603564 52.77823287324563 138.127203238599 H 0.0 **** 0.06
12564 H 25.126948902173638 51.89099055485272 136.6635455442353 H 0.0 **** 0.06
12565 H 25.06680797391823 53.670504180605235 136.6480533441444 H 0.0 **** 0.06
12566 C 38.87798291017242 40.50299799838615 107.12305134621903 C 0.0 **** -0.24
12567 H 39.47489734851831 41.353340227826465 107.45131050158281 H 0.0 **** 0.06
12568 H 37.821473353228924 40.77087995964342 107.14589163253251 H 0.0 **** 0.06
12569 H 39.05338536497379 39.65699273399537 107.78678841408504 H 0.0 **** 0.06
12570 H 39.16252306323133 40.23135698815858 106.10608283875911 H 0.0 **** 0.06
12571 C 127.90196406934336 161.2967791869372 7.1708103180108935 C 0.0 **** -0.24
12572 H 127.097921704036 161.54621175074985 7.8642734906214 H 0.0 **** 0.06
12573 H 127.54416902883975 160.559732841227 6.4511254686970005 H 0.0 **** 0.06
12574 H 128.7450077578315 160.88507713951935 7.725269158312045 H 0.0 **** 0.06
12575 H 128.2181995828141 162.19689149465813 6.643479496865353 H 0.0 **** 0.06
12576 C 8.112376523323547 97.24312580785178 126.69338512257812 C 0.0 **** -0.24
12577 H 7.418565766155098 97.89480302122814 127.22470452406569 H 0.0 **** 0.06
12578 H 9.034636059392824 97.78599277399081 126.48541715952345 H 0.0 **** 0.06
12579 H 7.66058810397854 96.91997378648315 125.75484269393513 H 0.0 **** 0.06
12580 H 8.334173972713188 96.37099126836488 127.30831039256475 H 0.0 **** 0.06
12581 C 3.9623583000417355 145.45112476888153 38.32050569486455 C 0.0 **** -0.24
12582 H 3.5458890225191624 146.42496424141757 38.57739257546385 H 0.0 **** 0.06
12583 H 3.5687168668007203 144.69603605796635 39.000418406331676 H 0.0 **** 0.06
12584 H 5.048448701599469 145.48684279628188 38.406608676769565 H 0.0 **** 0.06
12585 H 3.6878404242460263 145.19767796268948 37.29625449236471 H 0.0 **** 0.06
12586 C 8.621800113518532 58.67601550955891 67.38681637496117 C 0.0 **** -0.24
12587 H 8.17103822622461 58.001200314799405 68.11533272061108 H 0.0 **** 0.06
12588 H 9.54774791029692 59.08207270017351 67.79267356374632 H 0.0 **** 0.06
12589 H 7.9303428191093985 59.490463022628205 67.17135661749047 H 0.0 **** 0.06
12590 H 8.83517747963586 58.12860874245908 66.4695384775836 H 0.0 **** 0.06
12591 C 100.6486930251024 134.69095547152574 83.0208663221256 C 0.0 **** -0.24
12592 H 100.54572895049057 135.0206631209327 84.05458297306504 H 0.0 **** 0.06
12593 H 101.52607705538932 135.1605836301207 82.57570284127196 H 0.0 **** 0.06
12594 H 99.75922577185867 134.97498603919098 82.45826032726647 H 0.0 **** 0.06
12595 H 100.76374032267091 133.60758909585888 82.99491914689905 H 0.0 **** 0.06
12596 C 114.24932572171207 31.463026039144438 151.25385755319863 C 0.0 **** -0.24
12597 H 114.89149790723604 30.62216609747628 150.9903365448632 H 0.0 **** 0.06
12598 H 114.7830357041529 32.128474132783026 151.93256246067372 H 0.0 **** 0.06
12599 H 113.3481556902127 31.091384726304767 151.74278208738266 H 0.0 **** 0.06
12600 H 113.97435419425852 32.007682144256194 150.3501815792266 H 0.0 **** 0.06
12601 C 102.42345093277797 45.98152548296909 90.05755911855253 C 0.0 **** -0.24
12602 H 102.01594745603552 46.99005150519365 89.98102113317141 H 0.0 **** 0.06
12603 H 102.50510562238924 45.54624566864781 89.06158780842564 H 0.0 **** 0.06
12604 H 101.76066371455045 45.3675912996119 90.66897373724045 H 0.0 **** 0.06
12605 H 103.4099638006519 46.02256670467702 90.51926014115334 H 0.0 **** 0.06
12606 C 52.90819099069989 118.5356280689306 62.43132432890356 C 0.0 **** -0.24
12607 H 53.65330711275976 117.75341007181109 62.5776043219351 H 0.0 **** 0.06
12608 H 51.92468298805454 118.1565399856623 62.71101545065481 H 0.0 **** 0.06
12609 H 52.897309268279 118.83578613648578 61.38347243971994 H 0.0 **** 0.06
12610 H 53.1573205816419 119.39549562702197 63.052622216916575 H 0.0 **** 0.06
12611 C 85.50698517283868 68.72722843055509 100.37032624474557 C 0.0 **** -0.24
12612 H 84.87572065100342 68.68459414108632 99.48256598056366 H 0.0 **** 0.06
12613 H 86.33454481606876 69.41541232058125 100.19557827459232 H 0.0 **** 0.06
12614 H 85.89845970516538 67.73379046897533 100.58507844669731 H 0.0 **** 0.06
12615 H 84.91729454554489 69.07650081107819 101.21871039466339 H 0.0 **** 0.06
12616 C 10.10018638499134 117.63627078133382 123.04181234411439 C 0.0 **** -0.24
12617 H 11.189213456472693 117.63014509098753 123.0880007720495 H 0.0 **** 0.06
12618 H 9.719549600826994 116.65475925750692 123.32496536419725 H 0.0 **** 0.06
12619 H 9.781967135418448 117.87096723767507 122.026366176355 H 0.0 **** 0.06
12620 H 9.711422206636932 118.38935470159703 123.7279347142391 H 0.0 **** 0.06
12621 C 135.52022267823435 161.11750182283203 138.91113073101795 C 0.0 **** -0.24
12622 H 135.25278902349635 160.77277352358567 137.91176316808193 H 0.0 **** 0.06
12623 H 135.55612428547923 160.2659766041927 139.59091212539087 H 0.0 **** 0.06
12624 H 134.77351960149667 161.83089483657528 139.26094468451038 H 0.0 **** 0.06
12625 H 136.49645699308894 161.59991944095088 138.88000809151424 H 0.0 **** 0.06
12626 C 159.6037872989544 120.46850127061475 66.7347821146934 C 0.0 **** -0.24
12627 H 160.14642124755832 119.81306587995516 66.05459636059453 H 0.0 **** 0.06
12628 H 158.6930489079896 119.97068583531939 67.06947042803122 H 0.0 **** 0.06
12629 H 159.34470552821753 121.39285442382197 66.21896361404698 H 0.0 **** 0.06
12630 H 160.23048749174305 120.69706266904643 67.5969047369694 H 0.0 **** 0.06
12631 C 12.749775097106081 26.437011154801496 37.85127611538711 C 0.0 **** -0.24
12632 H 12.973246740299857 26.066393684988668 36.85133214496618 H 0.0 **** 0.06
12633 H 13.613479462456702 26.280043671399994 38.49816162611873 H 0.0 **** 0.06
12634 H 11.891781898768016 25.899924961771887 38.25420900628474 H 0.0 **** 0.06
12635 H 12.52059228689982 27.501682301045435 37.801401684178956 H 0.0 **** 0.06
12636 C 107.78195355636666 2.452010084720996 146.25732779751792 C 0.0 **** -0.24
12637 H 107.4104279082485 2.168360740593357 147.24181831876905 H 0.0 **** 0.06
12638 H 106.9394558995715 2.6563636398488484 145.59615974253674 H 0.0 **** 0.06
12639 H 108.37732660360842 1.6370247523890953 145.84560252358497 H 0.0 **** 0.06
12640 H 108.39941885289852 3.3451632869657715 146.34516160942457 H 0.0 **** 0.06
12641 C 90.41809670170636 18.351969310331896 130.5171726228001 C 0.0 **** -0.24
12642 H 89.71896173087623 19.137467415211745 130.80464416191572 H 0.0 **** 0.06
12643 H 90.04926448701116 17.84747381386751 129.62416537494428 H 0.0 **** 0.06
12644 H 90.5089623475381 17.63190390907596 131.3297623572673 H 0.0 **** 0.06
12645 H 91.39314646673074 18.791830692183908 130.3105092723846 H 0.0 **** 0.06
12646 C 51.78351916777868 131.87277286604603 139.70589009425578 C 0.0 **** -0.24
12647 H 51.60170252175071 132.51870335238618 138.84727647230264 H 0.0 **** 0.06
12648 H 51.59426222168051 132.42761650493318 140.6253286342663 H 0.0 **** 0.06
12649 H 52.81988598696674 131.53459198609784 139.69234832065192 H 0.0 **** 0.06
12650 H 51.119513690136145 131.00999944988683 139.65805080211817 H 0.0 **** 0.06
12651 C 162.00657505784548 132.21415865162072 162.5278996699745 C 0.0 **** -0.24
12652 H 162.28074573077026 132.74416632632926 161.61566057441672 H 0.0 **** 0.06
12653 H 161.24169460322574 131.47163941655097 162.30099016281972 H 0.0 **** 0.06
12654 H 161.6177649232709 132.92560852012343 163.25759595661125 H 0.0 **** 0.06
12655 H 162.88596119410448 131.71802602218747 162.93840580838608 H 0.0 **** 0.06
12656 C 87.30619328463149 99.96500142713361 110.0744020261726 C 0.0 **** -0.24
12657 H 86.54532226731459 99.18636465102995 110.02706386128352 H 0.0 **** 0.06
12658 H 88.28888562637474 99.50764166386406 110.19003795615538 H 0.0 **** 0.06
12659 H 87.10659047529458 100.61667915253656 110.92451301293636 H 0.0 **** 0.06
12660 H 87.28409374370779 100.55143372527971 109.15527273237547 H 0.0 **** 0.06
12661 C 47.91570010575566 139.21911866571315 158.90030474258904 C 0.0 **** -0.24
12662 H 48.185405666974944 138.7497454793555 157.9539493155214 H 0.0 **** 0.06
12663 H 47.558037759567 138.45740846714256 159.5945288669642 H 0.0 **** 0.06
12664 H 47.13034884692449 139.95496808268229 158.72979413222674 H 0.0 **** 0.06
12665 H 48.79157179376601 139.7132698347355 159.32182614395344 H 0.0 **** 0.06
12666 C 140.77132579042188 68.06562953406785 64.57311816852898 C 0.0 **** -0.24
12667 H 140.77396341989697 67.19768988729274 65.23378504360407 H 0.0 **** 0.06
12668 H 139.81256024854042 68.5780589174664 64.65060758792032 H 0.0 **** 0.06
12669 H 140.92739696192 67.73911021275829 63.54569774252029 H 0.0 **** 0.06
12670 H 141.571956315792 68.74527341438251 64.864377165441 H 0.0 **** 0.06
12671 C 28.73973731085323 68.15746360644494 11.222807630900768 C 0.0 **** -0.24
12672 H 29.536372740883024 67.78217416865263 10.581347850117922 H 0.0 **** 0.06
12673 H 27.77297171971594 67.9110544866264 10.783009138744568 H 0.0 **** 0.06
12674 H 28.830298366692823 69.23890231945678 11.321112458462714 H 0.0 **** 0.06
12675 H 28.81901679432753 67.69525729695182 12.20711549299756 H 0.0 **** 0.06
12676 C 128.96174739776794 59.39024399371806 60.28699204027407 C 0.0 **** -0.24
12677 H 128.3801285365944 59.617162021706406 61.180594620123856 H 0.0 **** 0.06
12678 H 130.02460480596525 59.4877908798307 60.51114518146511 H 0.0 **** 0.06
12679 H 128.69281306693165 60.08492765926434 59.49201169442085 H 0.0 **** 0.06
12680 H 128.7507224432478 58.37004240748331 59.96533683803415 H 0.0 **** 0.06
12681 C 25.279206226463714 143.22928903881677 148.92834349263376 C 0.0 **** -0.24
12682 H 25.89566418962508 142.41710999513575 149.31330015105294 H 0.0 **** 0.06
12683 H 25.478028878339238 144.1376776213697 149.49793336543814 H 0.0 **** 0.06
12684 H 24.226101452042222 142.96358667406696 149.02360346041672 H 0.0 **** 0.06
12685 H 25.518312765248737 143.39928846753003 147.87822248289496 H 0.0 **** 0.06
12686 C 74.14427142220532 67.67966482375962 36.33238884711153 C 0.0 **** -0.24
12687 H 74.63138765808868 66.70486551099629 36.31901289144426 H 0.0 **** 0.06
12688 H 73.07899820237878 67.55481151250498 36.135763562599635 H 0.0 **** 0.06
12689 H 74.58436084329954 68.31633449074809 35.565901505381134 H 0.0 **** 0.06
12690 H 74.28147999307855 68.14065032086363 37.31094444577295 H 0.0 **** 0.06
12691 C 65.69350843838014 33.90320893108415 97.21287201665854 C 0.0 **** -0.24
12692 H 64.8102235609817 33.68323630175365 96.6129772473646 H 0.0 **** 0.06
12693 H 65.39232258895261 34.41295904798517 98.12834718014011 H 0.0 **** 0.06
12694 H 66.36758713161004 34.543482675513616 96.64467022523135 H 0.0 **** 0.06
12695 H 66.20193139109998 32.97288261292812 97.46527623003755 H 0.0 **** 0.06
12696 C 53.77668875640035 116.86267687851989 28.86992875324509 C 0.0 **** -0.24
12697 H 54.44289504056053 116.1014243673934 29.2751467687945 H 0.0 **** 0.06
12698 H 52.743933640676005 116.60195557334157 29.10289044503319 H 0.0 **** 0.06
12699 H 53.90352230027224 116.91681564744033 27.78864428349457 H 0.0 **** 0.06
12700 H 54.016503123984876 117.82831444406668 29.312631759950882 H 0.0 **** 0.06
12701 C 2.9445640270260185 97.60936044179348 145.13495480299932 C 0.0 **** -0.24
12702 H 1.8919999955489857 97.79868836361152 145.3481209024908 H 0.0 **** 0.06
12703 H 3.1356053814789107 96.53706703303746 145.16992457784883 H 0.0 **** 0.06
12704 H 3.561142973732643 98.11365111215076 145.87986970864063 H 0.0 **** 0.06
12705 H 3.1885835414465475 97.99041001910905 144.14313145035442 H 0.0 **** 0.06
12706 C 63.626893794871194 103.19293795466311 95.50530456593397 C 0.0 **** -0.24
12707 H 63.662356498449554 104.21403918702947 95.12345829529245 H 0.0 **** 0.06
12708 H 64.45825688220185 103.03408952224834 96.19240824131695 H 0.0 **** 0.06
12709 H 63.70324254534688 102.49174715167115 94.67469987002127 H 0.0 **** 0.06
12710 H 62.685006261564666 103.03524370100251 96.03069989480039 H 0.0 **** 0.06
12711 C 148.03617779617645 103.47333849183846 130.03772717918747 C 0.0 **** -0.24
12712 H 147.36015614940197 102.69549587063642 129.68402756533385 H 0.0 **** 0.06
12713 H 148.44584140008942 104.0140749763467 129.18420233441088 H 0.0 **** 0.06
12714 H 148.84875363061133 103.01892414608054 130.60508419957353 H 0.0 **** 0.06
12715 H 147.4894087171183 104.16639052890409 130.67818665891187 H 0.0 **** 0.06
12716 C 71.3405765170684 77.05782436282396 105.25699350605487 C 0.0 **** -0.24
12717 H 71.37510005154165 77.28937478290123 104.19198298348289 H 0.0 **** 0.06
12718 H 70.3523789336462 76.67394813034895 105.51264652270959 H 0.0 **** 0.06
12719 H 71.53904923695306 77.96296330646766 105.83066407172714 H 0.0 **** 0.06
12720 H 72.09522283462616 76.30679294853923 105.49033146385682 H 0.0 **** 0.06
12721 C 117.4630775488622 6.86185494404549 74.42041898102526 C 0.0 **** -0.24
12722 H 116.54768685079324 6.635695743307167 73.87324281796768 H 0.0 **** 0.06
12723 H 117.21247393356782 7.175122873204657 75.43425472195472 H 0.0 **** 0.06
12724 H 117.99944841863112 7.664842840385063 73.91420894229915 H 0.0 **** 0.06
12725 H 118.09249494252242 5.973116640791432 74.45963393260969 H 0.0 **** 0.06
12726 C 106.12823386335063 1.1044048789709393 34.34654432585985 C 0.0 **** -0.24
12727 H 105.68726975864627 1.641553777748669 35.18656967694497 H 0.0 **** 0.06
12728 H 106.26979824146383 0.05860511925897072 34.618250470502986 H 0.0 **** 0.06
12729 H 107.09126319740199 1.5491260524188135 34.09733274585395 H 0.0 **** 0.06
12730 H 105.4642406991168 1.169843131697803 33.48479392162352 H 0.0 **** 0.06
12731 C 148.81282100285569 27.198848817571204 7.198824096024623 C 0.0 **** -0.24
12732 H 147.87948900329894 27.578518631404123 6.781616589231078 H 0.0 **** 0.06
12733 H 148.60562531299553 26.320463934298523 7.810481528188973 H 0.0 **** 0.06
12734 H 149.27574455316594 27.97079349467421 7.813689985984638 H 0.0 **** 0.06
12735 H 149.48844379207677 26.927261142885264 6.387966016011546 H 0.0 **** 0.06
12736 C 49.54732360922918 13.317791658044754 38.52869426606128 C 0.0 **** -0.24
12737 H 49.188609280888016 12.331746931276996 38.82292490034595 H 0.0 **** 0.06
12738 H 49.22616231331695 14.054645891949477 39.26475004458098 H 0.0 **** 0.06
12739 H 49.138553361576896 13.576959975574376 37.55195656891186 H 0.0 **** 0.06
12740 H 50.63596948113495 13.30781383337817 38.475145550406324 H 0.0 **** 0.06
12741 C 79.40815136408214 90.67528129109151 129.09004680611724 C 0.0 **** -0.24
12742 H 78.79371174460869 91.57255079788001 129.159438608576 H 0.0 **** 0.06
12743 H 78.76632840855841 89.80755213600786 128.93339335678425 H 0.0 **** 0.06
12744 H 79.97175860488893 90.54887221999402 130.01352308119064 H 0.0 **** 0.06
12745 H 80.09924836422914 90.77255808487939 128.25228130036095 H 0.0 **** 0.06
12746 C 139.865117198617 90.07602861669535 24.097778662966064 C 0.0 **** -0.24
12747 H 139.66691692749163 89.074128904264 24.47816197605311 H 0.0 **** 0.06
12748 H 139.47910211840178 90.16163308489685 23.081574394090318 H 0.0 **** 0.06
12749 H 140.93914391713326 90.25783114565434 24.09597350016206 H 0.0 **** 0.06
12750 H 139.37394132935614 90.80961640819608 24.7359698811689 H 0.0 **** 0.06
12751 C 75.72746974446584 42.61907100908718 47.96377138057085 C 0.0 **** -0.24
12752 H 76.28717159583184 42.012202848309755 48.67545018951478 H 0.0 **** 0.06
12753 H 76.11330755833318 43.639542145560085 47.974006827148855 H 0.0 **** 0.06
12754 H 74.67403618707996 42.62535261603995 48.24283252701048 H 0.0 **** 0.06
12755 H 75.83733783708024 42.19952365665762 46.963790442895345 H 0.0 **** 0.06
12756 C 70.53370068039365 72.68601011121717 113.64019089554782 C 0.0 **** -0.24
12757 H 69.81976199064195 72.07279932856886 114.18987528934932 H 0.0 **** 0.06
12758 H 70.08143399118465 73.02087460551036 112.70600916450678 H 0.0 **** 0.06
12759 H 71.42530206703677 72.09780610002576 113.42240000377168 H 0.0 **** 0.06
12760 H 70.80748243787127 73.55287251581069 114.24200315136329 H 0.0 **** 0.06
12761 C 26.65544106678282 46.180079320798825 144.11089712395258 C 0.0 **** -0.24
12762 H 25.69361969887722 45.990975282658084 144.58835308707137 H 0.0 **** 0.06
12763 H 27.459783018128306 45.88401713058789 144.78464045358342 H 0.0 **** 0.06
12764 H 26.745082774894634 47.24173010977739 143.88163785994414 H 0.0 **** 0.06
12765 H 26.7228379301705 45.60269743909299 143.18893471902484 H 0.0 **** 0.06
12766 C 88.96243641270483 147.7511949496638 1.7497535958763422 C 0.0 **** -0.24
12767 H 89.23962441586004 148.66970057885243 2.2667681667904844 H 0.0 **** 0.06
12768 H 87.94189374594878 147.84067366080646 1.3743029957191482 H 0.0 **** 0.06
12769 H 89.02360551725349 146.91154246361916 2.4419066794768582 H 0.0 **** 0.06
12770 H 89.64312976715716 147.58436698601696 0.914806980843025 H 0.0 **** 0.06
12771 C 89.81652251647894 134.21144348226045 79.50000149998957 C 0.0 **** -0.24
12772 H 89.25633748893513 134.59851612972506 78.64848087484279 H 0.0 **** 0.06
12773 H 89.44341670003553 134.66796228136278 80.41788904923328 H 0.0 **** 0.06
12774 H 90.8727203509921 134.45109472509424 79.37845207882717 H 0.0 **** 0.06
12775 H 89.69290775950408 133.13049876803754 79.55471649537827 H 0.0 **** 0.06
12776 C 106.13105379558715 41.19017689182641 154.64168571666352 C 0.0 **** -0.24
12777 H 105.66434854055865 40.47843530416014 153.9610573603481 H 0.0 **** 0.06
12778 H 106.33855522825513 42.11913096054724 154.10892460489777 H 0.0 **** 0.06
12779 H 107.0624888688983 40.77207562378749 155.0215881352351 H 0.0 **** 0.06
12780 H 105.45682021365462 41.39160200140634 155.47386769537303 H 0.0 **** 0.06
12781 C 143.35036104279618 61.31779463444923 161.85445045843323 C 0.0 **** -0.24
12782 H 142.36610567417728 61.104598790091416 161.43833180350518 H 0.0 **** 0.06
12783 H 143.94798877614298 61.853874632784965 161.11666715241137 H 0.0 **** 0.06
12784 H 143.84606922442129 60.381350865903585 162.11225533339265 H 0.0 **** 0.06
12785 H 143.2418846126841 61.93073770362167 162.74942728744304 H 0.0 **** 0.06
12786 C 71.20586923480289 55.468002018577124 22.341134063641874 C 0.0 **** -0.24
12787 H 71.43122446072857 55.872769471609956 21.35488705454233 H 0.0 **** 0.06
12788 H 70.34177350634135 54.807084116372835 22.273821720262845 H 0.0 **** 0.06
12789 H 70.98540617968831 56.28544881377718 23.02708421604359 H 0.0 **** 0.06
12790 H 72.06581573059577 54.907906007253644 22.70882870300693 H 0.0 **** 0.06
12791 C 155.05284798974316 142.74272797472403 0.19302484521415764 C 0.0 **** -0.24
12792 H 155.93846226594127 142.16896873971893 -0.08004941086807804 H 0.0 **** 0.06
12793 H 154.25553593253784 142.54303492830368 -0.5233270556838399 H 0.0 **** 0.06
12794 H 155.29171789091788 143.80635498159 0.18498579959700123 H 0.0 **** 0.06
12795 H 154.725887133044 142.45175573778704 1.191638700726699 H 0.0 **** 0.06
12796 C 159.9536501837066 99.70267728416354 57.17127461344967 C 0.0 **** -0.24
12797 H 160.4803851557382 98.95430094343243 56.57982220237784 H 0.0 **** 0.06
12798 H 158.9460244177119 99.34954975264648 57.38997100136896 H 0.0 **** 0.06
12799 H 159.89839965053872 100.63521998007599 56.61037682380504 H 0.0 **** 0.06
12800 H 160.4909776968793 99.87093581837954 58.10461328011286 H 0.0 **** 0.06
12801 C 29.648978008400356 57.25090687046949 94.57711024372006 C 0.0 **** -0.24
12802 H 30.51523636700091 57.90958996788949 94.53226791798534 H 0.0 **** 0.06
12803 H 28.783112801433873 57.8131795021022 94.92759249057299 H 0.0 **** 0.06
12804 H 29.851868559220065 56.42962805946027 95.26548037495617 H 0.0 **** 0.06
12805 H 29.44473604031115 56.85042302595237 93.58375643598329 H 0.0 **** 0.06
12806 C 107.28786467463618 18.30568019552694 160.65282798617628 C 0.0 **** -0.24
12807 H 106.3442167863098 17.803117701495133 160.4371418661297 H 0.0 **** 0.06
12808 H 107.85768049710154 18.41871127886344 159.7306372507369 H 0.0 **** 0.06
12809 H 107.86113350815546 17.71182605684104 161.36482023777245 H 0.0 **** 0.06
12810 H 107.08547625451152 19.288048370682432 161.07820959980515 H 0.0 **** 0.06
12811 C 120.22344333922047 94.95262258468507 120.72376725321465 C 0.0 **** -0.24
12812 H 120.75100695769066 95.89850541313648 120.60012597640034 H 0.0 **** 0.06
12813 H 119.84258124302539 94.62026970729869 119.75760188886278 H 0.0 **** 0.06
12814 H 119.39189737809659 95.08919133905718 121.41509434243332 H 0.0 **** 0.06
12815 H 120.90905360963436 94.20414898427745 121.12058165749983 H 0.0 **** 0.06
12816 C 71.6774325190976 131.00680409936993 32.413861087483866 C 0.0 **** -0.24
12817 H 71.31011489647138 130.64860404927617 33.37488986177016 H 0.0 **** 0.06
12818 H 72.00919885636549 130.15919487192087 31.812894700528737 H 0.0 **** 0.06
12819 H 72.51291837971809 131.68750109250269 32.57498158058013 H 0.0 **** 0.06
12820 H 70.8762981640013 131.53133730814662 31.89220359129613 H 0.0 **** 0.06
12821 C 130.6716494281045 108.9908479171495 121.19118661741126 C 0.0 **** -0.24
12822 H 129.62058858555585 108.95052562185359 121.47353748521027 H 0.0 **** 0.06
12823 H 130.75435370631885 109.2279787108038 120.13059110549634 H 0.0 **** 0.06
12824 H 131.13724275193474 108.02464173183574 121.38437643765002 H 0.0 **** 0.06
12825 H 131.1757606174736 109.76066613998756 121.77616242364533 H 0.0 **** 0.06
12826 C 3.9095661615939434 52.398278540478756 144.36369947261727 C 0.0 **** -0.24
12827 H 4.578028360629617 52.93581828939415 143.69001096201129 H 0.0 **** 0.06
12828 H 2.9229936813158304 52.862338311641224 144.34158255700487 H 0.0 **** 0.06
12829 H 4.306960372132522 52.437367877904805 145.37688586094822 H 0.0 **** 0.06
12830 H 3.8294477748006273 51.35979458863375 144.0439856145145 H 0.0 **** 0.06
12831 C 19.27209371033493 88.13011885658038 121.28256789470129 C 0.0 **** -0.24
12832 H 19.33356287607205 88.66937214613236 120.33774131687915 H 0.0 **** 0.06
12833 H 18.66999380758938 88.70378732752593 121.98897367378282 H 0.0 **** 0.06
12834 H 20.274610133415422 87.99088906703119 121.68812771424496 H 0.0 **** 0.06
12835 H 18.809033663952334 87.15760476516719 121.11722711157483 H 0.0 **** 0.06
12836 C 67.73560114055687 116.5426406645571 39.32063099552471 C 0.0 **** -0.24
12837 H 67.97147128975385 117.06708670484815 40.24719643446423 H 0.0 **** 0.06
12838 H 68.62949940551013 116.48181621143164 38.7008801619007 H 0.0 **** 0.06
12839 H 66.95754124136477 117.08510754665895 38.7841449176386 H 0.0 **** 0.06
12840 H 67.3838074415155 115.53749799787067 39.552560427844696 H 0.0 **** 0.06
12841 C 49.87042360153055 64.2756410252969 116.71247353706505 C 0.0 **** -0.24
12842 H 49.800938533348244 65.26631471088133 117.16302582574755 H 0.0 **** 0.06
12843 H 49.827302394685944 64.36595512709485 115.62749392752298 H 0.0 **** 0.06
12844 H 49.040840010345846 63.6602593863076 117.05983119597417 H 0.0 **** 0.06
12845 H 50.81235108946254 63.8114727284447 117.00252045825266 H 0.0 **** 0.06
12846 C 26.233772619515662 150.51268672366 51.49793305315791 C 0.0 **** -0.24
12847 H 26.912810829351315 150.20751088789507 52.29432848627067 H 0.0 **** 0.06
12848 H 25.433248398921762 149.77979128747148 51.40239207972485 H 0.0 **** 0.06
12849 H 26.783143578841532 150.5765114020258 50.55813102836743 H 0.0 **** 0.06
12850 H 25.80875962295937 151.4877668640009 51.7366411123694 H 0.0 **** 0.06
12851 C 143.70014510905304 88.12203228442661 60.885406902239396 C 0.0 **** -0.24
12852 H 143.56786213848716 88.7686788640809 60.01878170643462 H 0.0 **** 0.06
12853 H 143.30779153221576 87.12934622671546 60.661286482406496 H 0.0 **** 0.06
12854 H 143.16462637223327 88.54048120177191 61.73686095521043 H 0.0 **** 0.06
12855 H 144.76104027646585 88.0475540945325 61.12361540217631 H 0.0 **** 0.06
12856 C 5.700374804879502 157.6472514193552 61.9675879065407 C 0.0 **** -0.24
12857 H 5.976350515234685 157.1240256754985 62.88253274229197 H 0.0 **** 0.06
12858 H 6.055085700976456 158.67738061705927 62.0164439244316 H 0.0 **** 0.06
12859 H 4.616520316722685 157.64170220471152 61.85856283127407 H 0.0 **** 0.06
12860 H 6.154566509415318 157.14664144665727 61.112181323489494 H 0.0 **** 0.06
12861 C 15.16145620774217 131.43225168000333 161.6424308113718 C 0.0 **** -0.24
12862 H 14.362606869980333 130.74477377282753 161.3648020819184 H 0.0 **** 0.06
12863 H 16.0996333676379 130.88268583737582 161.7280923574339 H 0.0 **** 0.06
12864 H 14.924192460531302 131.89637298468205 162.59992817263887 H 0.0 **** 0.06
12865 H 15.259221932947511 132.2033930634665 160.8782419023959 H 0.0 **** 0.06
12866 C 42.16860638592502 118.73951489030921 144.45823829175848 C 0.0 **** -0.24
12867 H 42.93123485540923 118.83735948712112 143.6868265648112 H 0.0 **** 0.06
12868 H 42.44593790637457 117.93975160757384 145.1452752550237 H 0.0 **** 0.06
12869 H 41.21086460610785 118.50449758429286 143.99393838414588 H 0.0 **** 0.06
12870 H 42.08543566353694 119.6782812812585 145.0077746536812 H 0.0 **** 0.06
12871 C 62.6199821570181 68.77911223168196 162.4811809879178 C 0.0 **** -0.24
12872 H 62.569518583471904 67.97914512568677 163.21944103388026 H 0.0 **** 0.06
12873 H 62.98275853988115 68.37796364407875 161.53507584116295 H 0.0 **** 0.06
12874 H 63.299946256984285 69.55537266911249 162.8321146161907 H 0.0 **** 0.06
12875 H 61.626478544970425 69.2053001364113 162.33894061658964 H 0.0 **** 0.06
12876 C 143.38893455981477 105.99650231870424 2.2853972459337513 C 0.0 **** -0.24
12877 H 143.01085741942833 105.3451360930062 1.4974146491132174 H 0.0 **** 0.06
12878 H 143.0613113073957 107.01914788452189 2.097924814174 H 0.0 **** 0.06
12879 H 144.47768410665515 105.95967274908506 2.2958291632108043 H 0.0 **** 0.06
12880 H 143.00501509741272 105.66204854063307 3.2493056341118844 H 0.0 **** 0.06
12881 C 68.27125559144338 82.14135931313552 114.35168038072453 C 0.0 **** -0.24
12882 H 67.98553630309031 82.51039242898275 113.3670282181792 H 0.0 **** 0.06
12883 H 67.38572022243659 81.77654783174802 114.87282678230349 H 0.0 **** 0.06
12884 H 68.72307959737084 82.95006767387903 114.92577680113976 H 0.0 **** 0.06
12885 H 68.98866242699197 81.32933236025687 114.24138777282803 H 0.0 **** 0.06
12886 C 93.86939855929484 46.99046096290812 72.38920118926819 C 0.0 **** -0.24
12887 H 94.51286757115119 46.492876045833924 73.1160806800853 H 0.0 **** 0.06
12888 H 93.84143301717972 48.0593695903718 72.60124160224063 H 0.0 **** 0.06
12889 H 92.86240390835803 46.57905220564302 72.45601026782086 H 0.0 **** 0.06
12890 H 94.26301782476065 46.828705251995245 71.38572681563807 H 0.0 **** 0.06
12891 C 36.768377731686556 43.85488442292983 101.50711922353855 C 0.0 **** -0.24
12892 H 37.69282729983097 43.92592593190204 102.07918470927837 H 0.0 **** 0.06
12893 H 36.372225214924015 44.85565850297239 101.33109842552835 H 0.0 **** 0.06
12894 H 36.03951391455635 43.26896777654264 102.06613267894124 H 0.0 **** 0.06
12895 H 36.96831987879801 43.369516927012086 100.55148885131467 H 0.0 **** 0.06
12896 C 94.39473816418281 96.7389997946654 90.70625030633727 C 0.0 **** -0.24
12897 H 95.14136803241732 96.54697206094667 91.47586189727537 H 0.0 **** 0.06
12898 H 93.41897767796347 96.87951966116594 91.17260589381624 H 0.0 **** 0.06
12899 H 94.35123768801606 95.89094395701734 90.02233592377678 H 0.0 **** 0.06
12900 H 94.6657551092991 97.6377484929952 90.15288204929254 H 0.0 **** 0.06
12901 C 8.081647282867372 55.80012344566984 14.818060124657343 C 0.0 **** -0.24
12902 H 8.71004992739745 56.42347552103307 14.181557039641866 H 0.0 **** 0.06
12903 H 7.204910480429447 56.36880937885208 15.12990268303944 H 0.0 **** 0.06
12904 H 8.646527864956099 55.49252285328315 15.697169681174366 H 0.0 **** 0.06
12905 H 7.764470336246937 54.91859854219547 14.262155057927842 H 0.0 **** 0.06
12906 C 117.25751386077437 7.9315009707787 78.53402766467494 C 0.0 **** -0.24
12907 H 118.29223146129078 8.107597455243479 78.23917111311698 H 0.0 **** 0.06
12908 H 116.7644531988457 8.886348734675693 78.71747193195554 H 0.0 **** 0.06
12909 H 117.23664033653009 7.330402022294209 79.44355239377502 H 0.0 **** 0.06
12910 H 116.73881804113194 7.400891917354983 77.73567277442687 H 0.0 **** 0.06
12911 C 30.415901504084445 122.60187800122912 77.72462559259961 C 0.0 **** -0.24
12912 H 30.594655006852634 123.57662564061638 77.27128900075601 H 0.0 **** 0.06
12913 H 29.883784104713243 121.96482868442038 77.01697868437248 H 0.0 **** 0.06
12914 H 29.815907769589103 122.72536619416627 78.62618260078551 H 0.0 **** 0.06
12915 H 31.369652993570185 122.14155603531478 77.98300447295438 H 0.0 **** 0.06
12916 C 43.09859042968408 133.0544688615347 114.80322962724438 C 0.0 **** -0.24
12917 H 42.08072903952743 132.7148582413114 114.60714871293101 H 0.0 **** 0.06
12918 H 43.27815040010964 133.0602100812004 115.8782347926045 H 0.0 **** 0.06
12919 H 43.227564785167885 134.06148743558094 114.40628999898377 H 0.0 **** 0.06
12920 H 43.805130395366575 132.37960420815392 114.31943126995438 H 0.0 **** 0.06
12921 C 161.87930476646858 128.98747105890268 27.328189424948505 C 0.0 **** -0.24
12922 H 161.65193737754635 129.90863635497576 27.865069705021966 H 0.0 **** 0.06
12923 H 162.8102093325478 129.11151560961517 26.773709908729643 H 0.0 **** 0.06
12924 H 161.06919560406988 128.76329214263365 26.63452177938234 H 0.0 **** 0.06
12925 H 161.98548377861533 128.16940869529955 28.039639211682783 H 0.0 **** 0.06
12926 C 85.64527871418201 25.60659673394366 90.78435146077304 C 0.0 **** -0.24
12927 H 85.92995464490743 24.57839897986986 91.00544605379486 H 0.0 **** 0.06
12928 H 85.56320052759962 25.737146818004184 89.70564590264874 H 0.0 **** 0.06
12929 H 86.4025358718163 26.285393133651326 91.17680388397258 H 0.0 **** 0.06
12930 H 84.68488952067179 25.825486207499182 91.25081886982593 H 0.0 **** 0.06
12931 C 99.05431583979882 19.28001117224045 104.90619082799108 C 0.0 **** -0.24
12932 H 98.71303839354735 18.246152910286156 104.94993587300024 H 0.0 **** 0.06
12933 H 98.29243488355974 19.933281790394034 105.3329469661065 H 0.0 **** 0.06
12934 H 99.23328327152117 19.56018431959245 103.86817420054425 H 0.0 **** 0.06
12935 H 99.97981593626815 19.380953147476077 105.47361673802567 H 0.0 **** 0.06
12936 C 8.136523256564232 108.6883287454763 111.93228652070755 C 0.0 **** -0.24
12937 H 7.251692526187497 108.54710258337244 111.31156870446813 H 0.0 **** 0.06
12938 H 8.929756478233443 109.140470098805 111.33600207359606 H 0.0 **** 0.06
12939 H 8.471413602616302 107.72318459216115 112.31151080282314 H 0.0 **** 0.06
12940 H 7.892900055613524 109.34284290449384 112.76871929453858 H 0.0 **** 0.06
12941 C 134.57878416886027 25.58855080972279 159.25345363127153 C 0.0 **** -0.24
12942 H 135.24329851139507 25.03285018620113 159.91421631780963 H 0.0 **** 0.06
12943 H 134.7493931975285 25.27806112448002 158.22246110884134 H 0.0 **** 0.06
12944 H 134.7795630642808 26.655301041484904 159.35057531775362 H 0.0 **** 0.06
12945 H 133.54237753961087 25.387359982194937 159.52715136358094 H 0.0 **** 0.06
12946 C 98.7551050819167 128.0943545451869 63.12177788353746 C 0.0 **** -0.24
12947 H 98.06038162689313 128.45047884389064 63.88213283079027 H 0.0 **** 0.06
12948 H 98.75454559028202 128.78475984394794 62.278144625178186 H 0.0 **** 0.06
12949 H 98.44740272749553 127.1050339004592 62.782695609916715 H 0.0 **** 0.06
12950 H 99.75836170911379 128.03810733957798 63.54410032669497 H 0.0 **** 0.06
12951 C 48.74071879043355 158.05643769081075 140.99475674470358 C 0.0 **** -0.24
12952 H 48.352047156875685 158.88677332465198 140.40371782458593 H 0.0 **** 0.06
12953 H 49.82537287450319 158.01309451087812 140.89005345344165 H 0.0 **** 0.06
12954 H 48.303835001635704 157.12372111317563 140.64003128296073 H 0.0 **** 0.06
12955 H 48.481319052337255 158.20442794207952 142.04303939590994 H 0.0 **** 0.06
12956 C 25.854969573367903 44.56219132396262 29.587380294760997 C 0.0 **** -0.24
12957 H 25.673788141594244 45.23896419633945 28.7527177246009 H 0.0 **** 0.06
12958 H 25.06602620674051 43.81028317313127 29.62295250116513 H 0.0 **** 0.06
12959 H 25.860532206159895 45.12722001972605 30.51907201572898 H 0.0 **** 0.06
12960 H 26.81953173897714 44.072297906653716 29.45477893754891 H 0.0 **** 0.06
12961 C 14.016258753613272 101.5457008577043 160.02222564684277 C 0.0 **** -0.24
12962 H 13.255794241728921 100.78989088842488 159.82604748659168 H 0.0 **** 0.06
12963 H 14.070671202534982 101.73711648353986 161.09416651100753 H 0.0 **** 0.06
12964 H 13.754146411505872 102.4675387900599 159.50129488805706 H 0.0 **** 0.06
12965 H 14.983165306373905 101.18923490096478 159.66671389774064 H 0.0 **** 0.06
12966 C 75.72815173927725 111.70641461302515 145.1877158768852 C 0.0 **** -0.24
12967 H 74.76963493099122 111.2423040990488 145.4189923371332 H 0.0 **** 0.06
12968 H 75.67614523013829 112.77386436888582 145.40066699688725 H 0.0 **** 0.06
12969 H 75.9588021546451 111.55610620439958 144.13287293327988 H 0.0 **** 0.06
12970 H 76.50862213440735 111.25044441146676 145.79827303674335 H 0.0 **** 0.06
12971 C 72.53945584532136 60.82490926461696 33.86062627470022 C 0.0 **** -0.24
12972 H 71.57694392911398 60.90930636116906 33.35627838719816 H 0.0 **** 0.06
12973 H 72.7232069524274 61.72597241375115 34.446137675024886 H 0.0 **** 0.06
12974 H 73.32954068744164 60.7056540417023 33.11928897765105 H 0.0 **** 0.06
12975 H 72.52799201147283 59.95794289670994 34.521433177788026 H 0.0 **** 0.06
12976 C 134.69396442279836 32.15929903887954 80.97323927251009 C 0.0 **** -0.24
12977 H 134.5829458014576 33.23907427380465 80.87095446540768 H 0.0 **** 0.06
12978 H 133.70861132209126 31.692659136245425 80.98689016884703 H 0.0 **** 0.06
12979 H 135.215423756709 31.93527540267428 81.9041111462401 H 0.0 **** 0.06
12980 H 135.26898465322972 31.77178621704573 80.1321980099621 H 0.0 **** 0.06
12981 C 18.376038250149918 124.57543364858404 62.48185751423465 C 0.0 **** -0.24
12982 H 17.974893278104787 124.70704393939278 61.4767220448811 H 0.0 **** 0.06
12983 H 19.38611320789127 124.9835502503129 62.52607623283677 H 0.0 **** 0.06
12984 H 18.40021966549213 123.51376902800459 62.72650283371567 H 0.0 **** 0.06
12985 H 17.740447172084316 125.09861541971841 63.196611098204926 H 0.0 **** 0.06
12986 C 28.528146118687857 9.332040474967428 134.58859564159198 C 0.0 **** -0.24
12987 H 28.26284790535078 9.53650947740578 133.5507063506439 H 0.0 **** 0.06
12988 H 28.774276198918926 10.266691071854687 135.09121683229492 H 0.0 **** 0.06
12989 H 29.389193559728312 8.664526875856957 134.61745298668376 H 0.0 **** 0.06
12990 H 27.68477338113229 8.859221754101242 135.09179712905464 H 0.0 **** 0.06
12991 C 40.5798869473023 142.7956642656642 87.4710698309188 C 0.0 **** -0.24
12992 H 40.815541281552996 143.15382807960236 86.46845694373229 H 0.0 **** 0.06
12993 H 41.36975707611499 142.1267087575839 87.81229784207574 H 0.0 **** 0.06
12994 H 39.63178205062215 142.25854759156664 87.4499361750758 H 0.0 **** 0.06
12995 H 40.502350515681584 143.64398281149167 88.15029922478215 H 0.0 **** 0.06
12996 C 78.1551556158127 121.81506429971353 26.12250089490466 C 0.0 **** -0.24
12997 H 78.32071373165275 122.45200278887475 26.991782061592843 H 0.0 **** 0.06
12998 H 79.1073177379399 121.40377101577243 25.78836325383928 H 0.0 **** 0.06
12999 H 77.71080672200935 122.40323847331922 25.32028270564515 H 0.0 **** 0.06
13000 H 77.48142726433565 121.00124875302038 26.393300199948868 H 0.0 **** 0.06
13001 C 66.97073646131304 37.706706093476754 114.81923224383351 C 0.0 **** -0.24
13002 H 68.03328512988162 37.79818358863014 114.59734261865168 H 0.0 **** 0.06
13003 H 66.83864037940214 37.47812111643775 115.87691149478101 H 0.0 **** 0.06
13004 H 66.54222778083914 36.90456668591111 114.21776606953614 H 0.0 **** 0.06
13005 H 66.46881463530457 38.64517878447721 114.58427621082507 H 0.0 **** 0.06
13006 C 43.26955949663622 58.569692771540815 135.48916897425013 C 0.0 **** -0.24
13007 H 43.12853769774422 59.5433359132237 135.01967483525152 H 0.0 **** 0.06
13008 H 43.08775115503745 57.78326333499672 134.75620830413988 H 0.0 **** 0.06
13009 H 42.57014270440925 58.4627257096362 136.318346914217 H 0.0 **** 0.06
13010 H 44.290310713665406 58.49022951603786 135.86205954197948 H 0.0 **** 0.06
13011 C 150.77700639049337 58.88792980265255 41.462707203323006 C 0.0 **** -0.24
13012 H 150.0140411963717 58.65325682929203 40.71979227249136 H 0.0 **** 0.06
13013 H 151.69990248677982 59.17288692732498 40.95781307478548 H 0.0 **** 0.06
13014 H 150.95805477248953 58.01255362762613 42.08696909666598 H 0.0 **** 0.06
13015 H 150.43378959359393 59.71372665089358 42.08695930921314 H 0.0 **** 0.06
13016 C 52.86484815563877 15.216550345333538 153.6549595146457 C 0.0 **** -0.24
13017 H 52.55354760097255 16.14488605988111 154.13419080534763 H 0.0 **** 0.06
13018 H 51.98211683528517 14.659589018791685 153.33698243059908 H 0.0 **** 0.06
13019 H 53.43825071819589 14.617061040961083 154.36159514443506 H 0.0 **** 0.06
13020 H 53.48212888165389 15.445898582941815 152.7865536550825 H 0.0 **** 0.06
13021 C 149.12356500118304 138.93577909070518 36.59407530134875 C 0.0 **** -0.24
13022 H 148.1956685497973 139.06967814388474 37.15052214391578 H 0.0 **** 0.06
13023 H 149.7697659878163 138.2385408243051 37.12770434099815 H 0.0 **** 0.06
13024 H 149.62742773557753 139.89650271490498 36.49322746260468 H 0.0 **** 0.06
13025 H 148.89866908621661 138.53786394398554 35.60432471055023 H 0.0 **** 0.06
13026 C 162.31995045501077 4.182112573258337 52.879928564356945 C 0.0 **** -0.24
13027 H 161.5164385708433 4.849671443237838 53.188361071649 H 0.0 **** 0.06
13028 H 161.92746890623897 3.1711619632022803 52.763898409761964 H 0.0 **** 0.06
13029 H 163.1048614433497 4.183434481355874 53.63628816851599 H 0.0 **** 0.06
13030 H 162.7312723842955 4.523214196715202 51.92916526539018 H 0.0 **** 0.06
13031 C 48.473346556289926 49.60751830829781 70.98696177434351 C 0.0 **** -0.24
13032 H 48.7942527798599 50.25247092143724 70.16967042947226 H 0.0 **** 0.06
13033 H 47.669043860902775 48.95670006704847 70.6417767619796 H 0.0 **** 0.06
13034 H 48.11481758023575 50.22153384963312 71.81408134973788 H 0.0 **** 0.06
13035 H 49.314443119271004 49.000449539070786 71.3226982110981 H 0.0 **** 0.06
13036 C 21.584342872360708 50.56606713044084 67.0266012636476 C 0.0 **** -0.24
13037 H 22.328804032852986 51.031641950451885 67.67263727713427 H 0.0 **** 0.06
13038 H 20.641895425116388 51.109103587661565 67.10910050930448 H 0.0 **** 0.06
13039 H 21.43572879596428 49.53045276288033 67.33086359361509 H 0.0 **** 0.06
13040 H 21.930895104128126 50.59583756609794 65.99322081551041 H 0.0 **** 0.06
13041 C 32.92949128141345 41.519648315016596 154.53845626635257 C 0.0 **** -0.24
13042 H 32.15380048916967 41.782508742223996 155.25913241333313 H 0.0 **** 0.06
13043 H 32.6529889647756 40.596750332254146 154.02821058868824 H 0.0 **** 0.06
13044 H 33.876122256478084 41.377059551232506 155.06046596220062 H 0.0 **** 0.06
13045 H 33.033232343957025 42.322386574514326 153.8087858486134 H 0.0 **** 0.06
13046 C 123.11819771116416 28.5831035209535 8.025327783744466 C 0.0 **** -0.24
13047 H 122.03546974994069 28.46162822420797 7.978778841810531 H 0.0 **** 0.06
13048 H 123.39040392666985 29.063290291523913 8.964572831606262 H 0.0 **** 0.06
13049 H 123.4505148107362 29.200918457983647 7.190608113134218 H 0.0 **** 0.06
13050 H 123.5956558700262 27.604919354965034 7.965709768171735 H 0.0 **** 0.06
13051 C 154.1652555702022 13.157411414818739 130.0777566235286 C 0.0 **** -0.24
13052 H 154.3042855450333 13.520414711942635 129.05955570023986 H 0.0 **** 0.06
13053 H 154.65529832676248 12.189830402008909 130.18763813316457 H 0.0 **** 0.06
13054 H 153.09959281151333 13.050849837703083 130.2831450442541 H 0.0 **** 0.06
13055 H 154.60061073075173 13.868224285655515 130.7800804812356 H 0.0 **** 0.06
13056 C 30.644127012145873 17.910409492228382 160.85536086179138 C 0.0 **** -0.24
13057 H 30.715586884931525 17.535722411066672 159.8343648145419 H 0.0 **** 0.06
13058 H 31.64601362339883 18.051690294153815 161.26095648974223 H 0.0 **** 0.06
13059 H 30.100723408307374 17.190190105641676 161.4680128445367 H 0.0 **** 0.06
13060 H 30.112259275975305 18.862015434215323 160.8570066121967 H 0.0 **** 0.06
13061 C 49.87468571684968 13.845649162847934 160.4872976205862 C 0.0 **** -0.24
13062 H 50.92764811917698 14.1229554958866 160.46420705344994 H 0.0 **** 0.06
13063 H 49.28972060961155 14.671599080741743 160.89304069150126 H 0.0 **** 0.06
13064 H 49.74496889726095 12.965341883346866 161.117390881052 H 0.0 **** 0.06
13065 H 49.535398085060535 13.621368982354113 159.4763445358229 H 0.0 **** 0.06
13066 C 45.95855016352692 108.58998522322918 50.164128838351004 C 0.0 **** -0.24
13067 H 46.56115283655595 108.33503465723405 49.29203016223677 H 0.0 **** 0.06
13068 H 45.4867296369527 107.68818771992497 50.554481900934874 H 0.0 **** 0.06
13069 H 45.18918146159626 109.30777108082876 49.877302830789304 H 0.0 **** 0.06
13070 H 46.59705782256219 109.02791104834387 50.93048238386312 H 0.0 **** 0.06
13071 C 120.3626822295983 21.380060127620425 56.07741819007177 C 0.0 **** -0.24
13072 H 120.82186845155289 21.37630651317403 57.06530064253508 H 0.0 **** 0.06
13073 H 120.01750985750587 20.376088293024907 55.83276044883826 H 0.0 **** 0.06
13074 H 121.09534811914193 21.703808380619705 55.3378496448226 H 0.0 **** 0.06
13075 H 119.51560755577952 22.066341995681228 56.0744918835139 H 0.0 **** 0.06
13076 C 2.4315910456861687 150.96141996397958 145.66054143200986 C 0.0 **** -0.24
13077 H 2.0565923230273597 151.66933571138946 146.40012045274207 H 0.0 **** 0.06
13078 H 1.8399859782443428 150.04609945721955 145.70186591209486 H 0.0 **** 0.06
13079 H 3.474714673644982 150.73044225238456 145.87669936467208 H 0.0 **** 0.06
13080 H 2.3542643454942507 151.40001928549236 144.66578263399572 H 0.0 **** 0.06
13081 C 133.32113581075762 18.490132793097153 36.92487864669205 C 0.0 **** -0.24
13082 H 132.8623936267935 17.50872739952335 37.04772788702593 H 0.0 **** 0.06
13083 H 134.27658439934146 18.381621566099994 36.41032232906001 H 0.0 **** 0.06
13084 H 133.48462911458947 18.938945653565135 37.90497192348495 H 0.0 **** 0.06
13085 H 132.66162405877427 19.128142201309103 36.33746816962346 H 0.0 **** 0.06
13086 C 11.697402786054347 85.5451558631916 101.39964759686919 C 0.0 **** -0.24
13087 H 11.386236596285649 86.53261640580544 101.73916947707312 H 0.0 **** 0.06
13088 H 10.862996519305462 84.8493340224153 101.49411473796744 H 0.0 **** 0.06
13089 H 12.53153261911531 85.19773834231678 102.0091345442082 H 0.0 **** 0.06
13090 H 12.007956090673744 85.60074089243308 100.35658585968588 H 0.0 **** 0.06
13091 C 129.19008842271705 15.390769339649175 117.13755924913096 C 0.0 **** -0.24
13092 H 128.31457213807903 14.744896560856965 117.2004355620231 H 0.0 **** 0.06
13093 H 129.01700080527024 16.16718140707151 116.39140251151329 H 0.0 **** 0.06
13094 H 130.0583655819325 14.79781228332272 116.85015437769266 H 0.0 **** 0.06
13095 H 129.37041516558668 15.853187107345548 118.10824454529492 H 0.0 **** 0.06
13096 C 132.18266682511654 7.178877072837565 142.58960328510048 C 0.0 **** -0.24
13097 H 131.9790098431027 6.440695380784263 143.36598496374353 H 0.0 **** 0.06
13098 H 131.47414642644634 8.001792233880394 142.6766337277136 H 0.0 **** 0.06
13099 H 132.0794880054146 6.711206836025667 141.61002247579765 H 0.0 **** 0.06
13100 H 133.19746151508883 7.557750202078694 142.70618677502566 H 0.0 **** 0.06
13101 C 16.764405128260933 27.87793522696878 115.10498123335009 C 0.0 **** -0.24
13102 H 17.679082088984046 27.591214719147814 114.58654874100648 H 0.0 **** 0.06
13103 H 16.882038150492804 27.70214299427022 116.17464493920315 H 0.0 **** 0.06
13104 H 15.932035734932413 27.283931319994913 114.72847308282977 H 0.0 **** 0.06
13105 H 16.564171890818074 28.936101195212636 114.93069883901063 H 0.0 **** 0.06
13106 C 26.67518219131538 148.06068459266442 65.0865264001343 C 0.0 **** -0.24
13107 H 26.365337260958874 148.5551164075883 64.16622800574392 H 0.0 **** 0.06
13108 H 27.174543189297687 147.12230889883483 64.84448607570012 H 0.0 **** 0.06
13109 H 25.799107647878692 147.85783891022317 65.70249383300612 H 0.0 **** 0.06
13110 H 27.36174066712642 148.70747415401135 65.63289768608723 H 0.0 **** 0.06
13111 C 136.22981319081447 41.3450857991743 151.58945931570491 C 0.0 **** -0.24
13112 H 135.31196704455465 41.780499784128935 151.19356540412286 H 0.0 **** 0.06
13113 H 137.08596941011203 41.92430496387182 151.2434888746563 H 0.0 **** 0.06
13114 H 136.3221647926798 40.31598293459605 151.24283513821536 H 0.0 **** 0.06
13115 H 136.1965956206831 41.35920491741952 152.67947910451352 H 0.0 **** 0.06
13116 C 22.662348273325023 13.563952434166083 33.30952270949251 C 0.0 **** -0.24
13117 H 22.695422345809845 13.021670559708923 32.36461354576451 H 0.0 **** 0.06
13118 H 22.777202742253735 12.86164554245363 34.13530678785821 H 0.0 **** 0.06
13119 H 21.70516420272574 14.077947446048853 33.39879558608635 H 0.0 **** 0.06
13120 H 23.47174921071229 14.293728064501124 33.33729894124903 H 0.0 **** 0.06
13121 C 38.37103845711245 152.67107327336305 57.31856721505946 C 0.0 **** -0.24
13122 H 39.30386376565622 152.29341532928066 56.90046643573896 H 0.0 **** 0.06
13123 H 37.549719879199486 152.01865480380732 57.02110829691736 H 0.0 **** 0.06
13124 H 38.18890937647025 153.67906470387194 56.94521062234293 H 0.0 **** 0.06
13125 H 38.44285198018393 152.69381658751695 58.405446868775215 H 0.0 **** 0.06
13126 C 150.40692319813223 119.40624817459144 160.01802055347468 C 0.0 **** -0.24
13127 H 150.70445705444433 118.486781174459 159.51389368893376 H 0.0 **** 0.06
13128 H 149.37648984925997 119.64661326186933 159.75566468216326 H 0.0 **** 0.06
13129 H 151.0610727925286 120.22003202755712 159.7062899302387 H 0.0 **** 0.06
13130 H 150.48528669845732 119.27063760355907 161.09764403023985 H 0.0 **** 0.06
13131 C 125.87401024851917 121.35210908071934 16.161533201972247 C 0.0 **** -0.24
13132 H 126.01821750162921 120.29159744171577 16.367050052858076 H 0.0 **** 0.06
13133 H 125.12973345286022 121.75789813795055 16.8479107929644 H 0.0 **** 0.06
13134 H 125.52823538509753 121.47885720640073 15.134800732554254 H 0.0 **** 0.06
13135 H 126.81778049216922 121.88018293828534 16.293785054345335 H 0.0 **** 0.06
13136 C 23.43162603262175 128.32660647199862 47.30126074750672 C 0.0 **** -0.24
13137 H 22.926243673020764 129.2013587147448 46.89246125046179 H 0.0 **** 0.06
13138 H 22.879811491429308 127.95958509587311 48.166018427170286 H 0.0 **** 0.06
13139 H 24.44286014786266 128.60031625272413 47.60435382642129 H 0.0 **** 0.06
13140 H 23.479136265200708 127.54674098704163 46.54185675087626 H 0.0 **** 0.06
13141 C 134.6241820107136 123.945420048573 143.49134215167567 C 0.0 **** -0.24
13142 H 133.96120142471472 123.08045868076206 143.4702605955418 H 0.0 **** 0.06
13143 H 135.20317586250488 123.98148406383245 142.56822602698003 H 0.0 **** 0.06
13144 H 135.30060459395708 123.86350432735782 144.34240981857363 H 0.0 **** 0.06
13145 H 134.03095803016845 124.85566731025082 143.58422981135448 H 0.0 **** 0.06
13146 C 110.76222145106809 20.23062973492341 159.4326199365369 C 0.0 **** -0.24
13147 H 110.76517010768598 20.231246196351037 160.52328616658173 H 0.0 **** 0.06
13148 H 109.96663392235578 19.576688529949536 159.07270424927236 H 0.0 **** 0.06
13149 H 111.72300938455504 19.86945664158071 159.06753178061652 H 0.0 **** 0.06
13150 H 110.59141858352177 21.243969806756184 159.06910633661707 H 0.0 **** 0.06
13151 C 134.63308886286342 69.44837099864651 58.87779559449555 C 0.0 **** -0.24
13152 H 133.7830943162565 70.12356676814795 58.775512546943915 H 0.0 **** 0.06
13153 H 134.48865940785151 68.58360366076477 58.22981839313171 H 0.0 **** 0.06
13154 H 134.71131285287146 69.11766866017496 59.91282689185073 H 0.0 **** 0.06
13155 H 135.54678491542046 69.96873369482057 58.59137452268169 H 0.0 **** 0.06
13156 C 162.1016415655235 162.18599648748074 147.9233612544083 C 0.0 **** -0.24
13157 H 161.39250855169934 162.05882489489278 147.1052783633287 H 0.0 **** 0.06
13158 H 162.28226324222402 161.2215574671143 148.39935503490412 H 0.0 **** 0.06
13159 H 161.69129294796187 162.88161574644965 148.6543124621078 H 0.0 **** 0.06
13160 H 163.0393272657965 162.5799661119817 147.53290730996738 H 0.0 **** 0.06
13161 C 155.71486357943382 21.178373284494107 9.078794873572747 C 0.0 **** -0.24
13162 H 155.50459979336293 21.45741204052485 10.110891450693089 H 0.0 **** 0.06
13163 H 156.3920728408189 21.907840641463537 8.63544194078213 H 0.0 **** 0.06
13164 H 154.78375120934206 21.155794277759952 8.511561383042306 H 0.0 **** 0.06
13165 H 156.17783589806973 20.192262926316175 9.05655023564276 H 0.0 **** 0.06
13166 C 61.53745244645684 13.216083852637212 161.56357999934082 C 0.0 **** -0.24
13167 H 60.9930757531625 12.763273738228008 162.3923633708583 H 0.0 **** 0.06
13168 H 62.194299810955314 13.99828906295022 161.94408939997982 H 0.0 **** 0.06
13169 H 60.82794622167765 13.647603637825455 160.857051536586 H 0.0 **** 0.06
13170 H 62.131683693677545 12.4541422958456 161.0605292034657 H 0.0 **** 0.06
13171 C 68.74821958111907 58.3019615017397 102.5228041757338 C 0.0 **** -0.24
13172 H 69.22398574479449 57.34952428839327 102.29154731882298 H 0.0 **** 0.06
13173 H 69.51370119488591 59.06107234191367 102.68288065490873 H 0.0 **** 0.06
13174 H 68.14566113123023 58.19666738158426 103.42618083225258 H 0.0 **** 0.06
13175 H 68.10817853391602 58.60078662960916 101.69264042241764 H 0.0 **** 0.06
13176 C 142.49138116897205 86.90982077852289 49.632417106831966 C 0.0 **** -0.24
13177 H 142.39638262913587 86.49844917180152 48.627531276077846 H 0.0 **** 0.06
13178 H 142.44075381113703 87.99860772797184 49.585239040399784 H 0.0 **** 0.06
13179 H 143.4483603639 86.60929095675975 50.059218592522186 H 0.0 **** 0.06
13180 H 141.68143111775902 86.53492867413748 50.2579190427811 H 0.0 **** 0.06
13181 C 49.30872003120349 56.472985160213454 117.96033599894588 C 0.0 **** -0.24
13182 H 49.85720008904889 55.92330597433411 118.72467312816349 H 0.0 **** 0.06
13183 H 49.53139130710292 56.0527666000948 116.97920464121034 H 0.0 **** 0.06
13184 H 49.60771981369237 57.521980073400016 117.98295732747692 H 0.0 **** 0.06
13185 H 48.239301073677254 56.39675885022302 118.1549804858239 H 0.0 **** 0.06
13186 C 92.47034616564065 52.422547535731496 143.34813521364276 C 0.0 **** -0.24
13187 H 92.68771246065467 53.43798308410331 143.01863352716498 H 0.0 **** 0.06
13188 H 93.15994463986988 52.14213729451639 144.14446171904018 H 0.0 **** 0.06
13189 H 92.58483628593785 51.73603916026012 142.5095393009006 H 0.0 **** 0.06
13190 H 91.44688803951675 52.37262245961038 143.71997228867048 H 0.0 **** 0.06
13191 C 91.8295204311892 60.554863576741425 100.69440873836541 C 0.0 **** -0.24
13192 H 92.12650301078392 60.84681185814266 101.70186117549801 H 0.0 **** 0.06
13193 H 91.01491988391122 59.832394164659235 100.74960626905772 H 0.0 **** 0.06
13194 H 92.68004619253189 60.10463870310018 100.1812173614017 H 0.0 **** 0.06
13195 H 91.49919726884866 61.435642205940326 100.14342735789864 H 0.0 **** 0.06
13196 C 46.27426479483967 27.606759168574598 123.8280082289248 C 0.0 **** -0.24
13197 H 46.87177977116082 27.137834394906605 123.04605856724788 H 0.0 **** 0.06
13198 H 45.6269042952606 28.36480701817385 123.38543875211153 H 0.0 **** 0.06
13199 H 46.93534590173647 28.074719982273166 124.55775771769831 H 0.0 **** 0.06
13200 H 45.66424833404446 26.850788224694128 124.32126948805859 H 0.0 **** 0.06
13201 C 36.70247773667387 95.81437255803814 151.2886307752422 C 0.0 **** -0.24
13202 H 36.09382978035907 96.64703067253652 150.93610562175382 H 0.0 **** 0.06
13203 H 36.1972163580797 95.32010792932823 152.11815971387205 H 0.0 **** 0.06
13204 H 37.67093932641127 96.18847589308422 151.62234582444353 H 0.0 **** 0.06
13205 H 36.84959174165928 95.10272644761648 150.47579059428324 H 0.0 **** 0.06
13206 C 20.270556228418805 25.3433403961088 35.5359448215838 C 0.0 **** -0.24
13207 H 20.937067406548145 25.979959883225092 34.95393765793561 H 0.0 **** 0.06
13208 H 19.841001114451274 25.921142415099297 36.355449637260676 H 0.0 **** 0.06
13209 H 20.833561068176948 24.502332246507223 35.94051334961411 H 0.0 **** 0.06
13210 H 19.471535608951825 24.971541912807055 34.89546238101245 H 0.0 **** 0.06
13211 C 134.4594511985301 83.15028604308742 143.09286105809264 C 0.0 **** -0.24
13212 H 134.82167801523653 82.92946865043815 144.09676058425686 H 0.0 **** 0.06
13213 H 133.3880058252666 83.3448012744004 143.1269118916699 H 0.0 **** 0.06
13214 H 134.65297121793765 82.29737489791472 142.44146450428002 H 0.0 **** 0.06
13215 H 134.97707458309034 84.02767442910422 142.70490550351877 H 0.0 **** 0.06
13216 C 152.70721443295784 105.41866099912914 77.72960296571966 C 0.0 **** -0.24
13217 H 153.5873360278086 105.59844177998355 78.34810902611787 H 0.0 **** 0.06
13218 H 152.93684409689544 105.66755316608553 76.69274819664591 H 0.0 **** 0.06
13219 H 151.88399755389446 106.04106431500838 78.07930986602747 H 0.0 **** 0.06
13220 H 152.4248054289772 104.36845533347227 77.79713847057849 H 0.0 **** 0.06
13221 C 59.893666028165626 29.69524790315476 23.84823453283107 C 0.0 **** -0.24
13222 H 60.86201378570627 29.52126683537344 24.317410474399253 H 0.0 **** 0.06
13223 H 59.848348474321995 29.160219350019503 22.899618896798074 H 0.0 **** 0.06
13224 H 59.76382217724964 30.763840871005215 23.66968320781953 H 0.0 **** 0.06
13225 H 59.10124117335678 29.33785746825233 24.505443606823064 H 0.0 **** 0.06
13226 C 108.08333916431312 124.89356673562153 125.63447050669743 C 0.0 **** -0.24
13227 H 107.26948525391094 125.42349249216727 126.12982227522298 H 0.0 **** 0.06
13228 H 107.67865641966586 124.05110578669212 125.0723350035008 H 0.0 **** 0.06
13229 H 108.78662792488947 124.52882360300433 126.38159643610138 H 0.0 **** 0.06
13230 H 108.5963536671888 125.57191525139035 124.95243511223822 H 0.0 **** 0.06
13231 C 74.01749074793771 79.21746280334281 139.29429740843233 C 0.0 **** -0.24
13232 H 74.07058794207786 79.34972643332554 138.21438823251952 H 0.0 **** 0.06
13233 H 73.60648096568642 80.11790782830644 139.7510058254531 H 0.0 **** 0.06
13234 H 75.0174301795539 79.03419090464223 139.68731444998707 H 0.0 **** 0.06
13235 H 73.3754627009486 78.36675271426424 139.52509649753466 H 0.0 **** 0.06
13236 C 123.74729535849974 31.832650636486505 144.63610682070464 C 0.0 **** -0.24
13237 H 123.0715389265479 31.0081604083893 144.86177680517807 H 0.0 **** 0.06
13238 H 124.50418975368166 31.498013018158275 143.92728359119246 H 0.0 **** 0.06
13239 H 124.23057347140946 32.16862497929799 145.5540618260883 H 0.0 **** 0.06
13240 H 123.18147841831436 32.65753490751234 144.20151042586724 H 0.0 **** 0.06
13241 C 113.27415973152111 13.066495723799392 120.29569999742702 C 0.0 **** -0.24
13242 H 113.84965057081732 12.159642978208154 120.11066422038559 H 0.0 **** 0.06
13243 H 113.95547151601721 13.895778983612303 120.48867257157892 H 0.0 **** 0.06
13244 H 112.62967595730387 12.916466212866396 121.16183027916796 H 0.0 **** 0.06
13245 H 112.66296816992582 13.293295739464213 119.42267740009174 H 0.0 **** 0.06
13246 C 135.9579226103889 26.65139356366086 66.3361643175271 C 0.0 **** -0.24
13247 H 134.92512475498256 26.880658900713343 66.59931420344742 H 0.0 **** 0.06
13248 H 136.31110529686634 27.370384103423817 65.59624305022669 H 0.0 **** 0.06
13249 H 136.01196551747307 25.64617829616091 65.92049807235429 H 0.0 **** 0.06
13250 H 136.580741215954 26.71088262933705 67.2284657675437 H 0.0 **** 0.06
13251 C 45.705712346979595 75.80627275882651 122.43455519676473 C 0.0 **** -0.24
13252 H 46.40565972565324 75.00796222387737 122.68450491377374 H 0.0 **** 0.06
13253 H 46.026848415237225 76.29412059626623 121.51334511276411 H 0.0 **** 0.06
13254 H 45.683118666771634 76.5349388141824 123.24393898395007 H 0.0 **** 0.06
13255 H 44.71001952440383 75.38513105072244 122.29569440674649 H 0.0 **** 0.06
13256 C 120.21920315379072 150.8299327182919 128.05430057348025 C 0.0 **** -0.24
13257 H 119.78902293123431 150.22544969891484 127.25514155192931 H 0.0 **** 0.06
13258 H 121.20149873060518 150.4385431113879 128.31804935121465 H 0.0 **** 0.06
13259 H 119.56726605528152 150.79319602827235 128.92735343895325 H 0.0 **** 0.06
13260 H 120.31678488080314 151.86169509202801 127.71717291992164 H 0.0 **** 0.06
13261 C 97.19805075116008 123.94682187104166 57.18957691862636 C 0.0 **** -0.24
13262 H 96.80850918179797 124.31167730249464 58.13979832764045 H 0.0 **** 0.06
13263 H 97.2308096990871 124.76783435405733 56.472500041894904 H 0.0 **** 0.06
13264 H 96.5488631026769 123.15879291745316 56.809497210099664 H 0.0 **** 0.06
13265 H 98.20293328624828 123.55086464423658 57.3359866800715 H 0.0 **** 0.06
13266 C 77.36775624690041 80.4650453934869 126.7208709879535 C 0.0 **** -0.24
13267 H 76.34465772882683 80.83338469669275 126.78868988495412 H 0.0 **** 0.06
13268 H 77.86437351706864 80.59115408423366 127.68366524600145 H 0.0 **** 0.06
13269 H 77.90628156692283 81.02813948972121 125.9583820466525 H 0.0 **** 0.06
13270 H 77.35692668456356 79.40810322577842 126.45315312303865 H 0.0 **** 0.06
13271 C 119.14103780149298 102.59788853150354 16.94825742679719 C 0.0 **** -0.24
13272 H 118.15946807556637 102.99447650523032 17.20918027070136 H 0.0 **** 0.06
13273 H 119.65214329536278 102.2703076354768 17.853806321293973 H 0.0 **** 0.06
13274 H 119.72777051998432 103.37532403629649 16.459302829874687 H 0.0 **** 0.06
13275 H 119.02197266145595 101.7521869520674 16.272016978272624 H 0.0 **** 0.06
13276 C 31.77827331456308 160.09042533593322 36.61576611294767 C 0.0 **** -0.24
13277 H 31.973250046014698 159.03038292933758 36.777704437992796 H 0.0 **** 0.06
13278 H 30.9062586244749 160.2058685415061 35.971862308090294 H 0.0 **** 0.06
13279 H 32.644709356914916 160.55098705901992 36.14006728984421 H 0.0 **** 0.06
13280 H 31.590325437023296 160.57607642740322 37.573971991630955 H 0.0 **** 0.06
13281 C 114.36777377105534 36.8429985524609 150.93353262434704 C 0.0 **** -0.24
13282 H 113.32507447579195 36.63125629059016 151.17327476349112 H 0.0 **** 0.06
13283 H 114.55850652466552 37.90912233192782 151.05466456264858 H 0.0 **** 0.06
13284 H 114.5701620284052 36.55148281452961 149.90316695699744 H 0.0 **** 0.06
13285 H 115.01608788686542 36.278931707480425 151.6044240253199 H 0.0 **** 0.06
13286 C 19.198818397268653 77.84184047323411 78.54045143151835 C 0.0 **** -0.24
13287 H 19.087668012300632 78.43893690407097 79.44512776946479 H 0.0 **** 0.06
13288 H 18.5704879717891 76.95300570863529 78.61349631995091 H 0.0 **** 0.06
13289 H 20.24069392122751 77.5411415320901 78.42826672854319 H 0.0 **** 0.06
13290 H 18.895074007942178 78.43169663913835 77.67650128243855 H 0.0 **** 0.06
13291 C 107.28553274937894 62.76351172935796 144.18165551860636 C 0.0 **** -0.24
13292 H 107.94960066144245 62.31201645852937 144.91872246569096 H 0.0 **** 0.06
13293 H 107.56451823134032 63.80640540845201 144.03326511431396 H 0.0 **** 0.06
13294 H 106.25719080326576 62.708875057076625 144.5389782485197 H 0.0 **** 0.06
13295 H 107.37102562177105 62.22526453889128 143.2380545619004 H 0.0 **** 0.06
13296 C 70.10347145357673 114.89821643273856 6.188401601940143 C 0.0 **** -0.24
13297 H 70.73895644527236 115.58250416113037 5.625920493557999 H 0.0 **** 0.06
13298 H 69.74693999612519 115.39368975375368 7.091503681954009 H 0.0 **** 0.06
13299 H 70.67704084260903 114.01227788357258 6.461619301749181 H 0.0 **** 0.06
13300 H 69.25213523508913 114.60565135266427 5.573557571365228 H 0.0 **** 0.06
13301 C 66.39983578827224 105.16524193353814 62.545619149232394 C 0.0 **** -0.24
13302 H 65.53287912623293 104.51236655975197 62.65277691050609 H 0.0 **** 0.06
13303 H 66.17491436905527 105.94967404850388 61.82244593881863 H 0.0 **** 0.06
13304 H 67.25281626892064 104.58297867383817 62.19784963464686 H 0.0 **** 0.06
13305 H 66.63546658294763 105.61641767047746 63.50973296711646 H 0.0 **** 0.06
13306 C 58.16169244519443 40.306005085454956 44.66972823139213 C 0.0 **** -0.24
13307 H 58.75729694498568 39.463649709929484 45.02284801868956 H 0.0 **** 0.06
13308 H 57.68629399200688 40.79633745990577 45.519631372449396 H 0.0 **** 0.06
13309 H 57.396471161550835 39.9462168879183 43.98176842017824 H 0.0 **** 0.06
13310 H 58.80774992554353 41.01687935319609 44.15447550995657 H 0.0 **** 0.06
13311 C 93.49411017497977 111.08067788109281 58.16763055667417 C 0.0 **** -0.24
13312 H 92.41962197243367 111.2623753749915 58.17732411348183 H 0.0 **** 0.06
13313 H 93.93357674061753 111.45891404612757 59.09176715968589 H 0.0 **** 0.06
13314 H 93.9418902158763 111.59193765133529 57.3168372404043 H 0.0 **** 0.06
13315 H 93.680333595452 110.01009554356068 58.089131394199256 H 0.0 **** 0.06
13316 C 0.34794850450194303 133.87389909393684 95.90914808173075 C 0.0 **** -0.24
13317 H 1.0493845621704736 133.25295071972926 95.35126596945355 H 0.0 **** 0.06
13318 H 0.3882150267791147 134.89553428123003 95.53108722308525 H 0.0 **** 0.06
13319 H 0.6179943614498242 133.86623206148158 96.96566279578138 H 0.0 **** 0.06
13320 H -0.6610452855026026 133.4797530452815 95.78895543288243 H 0.0 **** 0.06
13321 C 35.63917200048212 159.8521592754191 32.06931554475754 C 0.0 **** -0.24
13322 H 36.253498886122514 159.2962815232889 31.36205448028678 H 0.0 **** 0.06
13323 H 35.829300800829145 159.4882794705155 33.07949394999332 H 0.0 **** 0.06
13324 H 34.586222688032734 159.71210573808054 31.82377609124736 H 0.0 **** 0.06
13325 H 35.887665626944056 160.91197036979153 32.01193765750272 H 0.0 **** 0.06
13326 C 15.431780032541326 152.25205920534285 84.43723093364343 C 0.0 **** -0.24
13327 H 15.05885423378237 153.19185933644795 84.84325050135124 H 0.0 **** 0.06
13328 H 15.916047764421648 151.6804486509493 85.23006133551726 H 0.0 **** 0.06
13329 H 16.15313938150166 152.45958688147758 83.64660660968298 H 0.0 **** 0.06
13330 H 14.60128632968403 151.6766887506221 84.02892481487211 H 0.0 **** 0.06
13331 C 112.96020017821846 131.59191542577958 31.92137837285628 C 0.0 **** -0.24
13332 H 113.93262817705278 131.80386429479097 32.366524795701494 H 0.0 **** 0.06
13333 H 112.98197394602298 130.60749551566366 31.45290401138424 H 0.0 **** 0.06
13334 H 112.73270645544568 132.34721367849596 31.169971044296688 H 0.0 **** 0.06
13335 H 112.19482042786748 131.60827937722496 32.69737123292502 H 0.0 **** 0.06
13336 C 123.77560617705151 142.77010374685983 128.2846116734118 C 0.0 **** -0.24
13337 H 124.69195417635027 142.60078538075058 128.84902504626484 H 0.0 **** 0.06
13338 H 123.13958114302173 141.8869661152833 128.3508306895837 H 0.0 **** 0.06
13339 H 124.02181905580633 142.9627151861489 127.24084834807456 H 0.0 **** 0.06
13340 H 123.2481518157301 143.62955554640715 128.6976968206373 H 0.0 **** 0.06
13341 C 50.32762841054202 81.34494680769794 1.0320856994996461 C 0.0 **** -0.24
13342 H 49.905195068024184 80.59681558140778 1.7022189466450754 H 0.0 **** 0.06
13343 H 50.539633512393635 82.25596677768442 1.5909320828133104 H 0.0 **** 0.06
13344 H 49.614171860568334 81.56473483003973 0.23642377258755687 H 0.0 **** 0.06
13345 H 51.25100235623297 80.96209145750518 0.5958171627214313 H 0.0 **** 0.06
13346 C 147.69446647113597 118.43681358084848 49.714851398837354 C 0.0 **** -0.24
13347 H 147.0670553539854 118.84036093214786 48.92077479700704 H 0.0 **** 0.06
13348 H 147.9396343776101 117.39797006185893 49.49085198333698 H 0.0 **** 0.06
13349 H 147.15812618647433 118.48709572677092 50.662564788124 H 0.0 **** 0.06
13350 H 148.61240429351807 119.02030448538574 49.78572716514381 H 0.0 **** 0.06
13351 C 6.692910527856384 126.13221998181376 27.37895542033283 C 0.0 **** -0.24
13352 H 7.247975173434725 125.71873344497399 26.536660346225034 H 0.0 **** 0.06
13353 H 5.667751249130788 126.33878538557764 27.072405215997946 H 0.0 **** 0.06
13354 H 7.167392723824037 127.05708314338963 27.707436231207026 H 0.0 **** 0.06
13355 H 6.689872602976379 125.41441228114536 28.198919271097623 H 0.0 **** 0.06
13356 C 39.08085502123524 111.04568483772437 30.122264248413806 C 0.0 **** -0.24
13357 H 39.52723613709918 110.0536540699463 30.050286995321635 H 0.0 **** 0.06
13358 H 39.38923460330287 111.51549837172428 31.05643829251084 H 0.0 **** 0.06
13359 H 37.99411155537584 110.95681922027089 30.101349304271118 H 0.0 **** 0.06
13360 H 39.411227985869346 111.65494595848926 29.281282422456805 H 0.0 **** 0.06
13361 C 17.604305923799956 68.96616382734118 155.27660498354047 C 0.0 **** -0.24
13362 H 18.552968660236672 68.4346367368488 155.2073027771502 H 0.0 **** 0.06
13363 H 17.626285050086153 69.63707861609504 156.13547116923888 H 0.0 **** 0.06
13364 H 16.793522877557052 68.24771891018179 155.39669080424568 H 0.0 **** 0.06
13365 H 17.445127775116276 69.54517221832276 154.3676861673613 H 0.0 **** 0.06
13366 C 133.96276018658028 94.00778075035677 101.23343515846523 C 0.0 **** -0.24
13367 H 133.9227890374317 92.93993665417757 101.44578890959156 H 0.0 **** 0.06
13368 H 134.61128997778337 94.18380813703392 100.37548626056474 H 0.0 **** 0.06
13369 H 134.35741352584083 94.53612856078668 102.1022632422146 H 0.0 **** 0.06
13370 H 132.95954698898893 94.3720826796443 101.01172082272825 H 0.0 **** 0.06
13371 C 103.62452619142348 5.255625948503592 79.9021355967021 C 0.0 **** -0.24
13372 H 104.3081623905428 5.52521758673663 80.70742732319242 H 0.0 **** 0.06
13373 H 102.74267228684258 5.894451748187265 79.94578340871715 H 0.0 **** 0.06
13374 H 103.32494149203038 4.213395741935869 80.0144123768697 H 0.0 **** 0.06
13375 H 104.12429405452195 5.3890015622184535 78.94189191380588 H 0.0 **** 0.06
13376 C 30.64370863769389 6.499235441417163 71.19773292439008 C 0.0 **** -0.24
13377 H 29.851938230358428 5.812780502714965 71.50146992206457 H 0.0 **** 0.06
13378 H 31.614081287466348 6.052183990733482 71.41585171231108 H 0.0 **** 0.06
13379 H 30.541850070577254 7.435842564128045 71.74546348885784 H 0.0 **** 0.06
13380 H 30.563813217261895 6.6934806776014995 70.12799446263195 H 0.0 **** 0.06
13381 C 96.37934990115969 26.841509072641237 51.599974785128396 C 0.0 **** -0.24
13382 H 97.37190837729605 27.2822954749552 51.695682102861426 H 0.0 **** 0.06
13383 H 96.35365464123205 26.192120552665557 50.72524274493837 H 0.0 **** 0.06
13384 H 95.64044724499445 27.63430171818508 51.48746472677118 H 0.0 **** 0.06
13385 H 96.15457483500734 26.258039562348046 52.49266417603582 H 0.0 **** 0.06
13386 C 52.38339899810768 15.052382460610886 82.79096356226074 C 0.0 **** -0.24
13387 H 53.317085876696126 15.608967167794106 82.8678017888459 H 0.0 **** 0.06
13388 H 52.409678645174324 14.419134318268505 81.90354480001423 H 0.0 **** 0.06
13389 H 51.54986325955474 15.750731333912654 82.71466228156169 H 0.0 **** 0.06
13390 H 52.25665683337462 14.431592200554633 83.67752642667432 H 0.0 **** 0.06
13391 C 0.7239029872349576 24.727282038410635 16.172307329263703 C 0.0 **** -0.24
13392 H 1.2520802712846617 25.519544701013473 16.703703146009566 H 0.0 **** 0.06
13393 H 0.7626944589028142 24.920268576676477 15.100500324212277 H 0.0 **** 0.06
13394 H -0.3158811323985802 24.701306768575478 16.500084938142905 H 0.0 **** 0.06
13395 H 1.1963696933457655 23.768742219776584 16.38782877785959 H 0.0 **** 0.06
13396 C 70.80850883457727 109.19484750376239 1.4602918218926675 C 0.0 **** -0.24
13397 H 71.49873488041018 109.4249558766131 2.2725442635015156 H 0.0 **** 0.06
13398 H 71.2746323988244 108.48585401945044 0.7774163849172453 H 0.0 **** 0.06
13399 H 70.5637718647677 110.11077630126425 0.9224627516385908 H 0.0 **** 0.06
13400 H 69.89743815898348 108.75968523524548 1.8712272006615933 H 0.0 **** 0.06
13401 C 124.51410549125009 158.33702435388415 109.94508316492343 C 0.0 **** -0.24
13402 H 125.38163362331099 158.59311377756356 110.5537374341998 H 0.0 **** 0.06
13403 H 123.8606119730886 157.66989187881313 110.50701406085781 H 0.0 **** 0.06
13404 H 124.84489209876631 157.8383526027368 109.03395662864577 H 0.0 **** 0.06
13405 H 123.97069466381777 159.2450340557974 109.68530271062085 H 0.0 **** 0.06
13406 C 75.26757185047643 9.69820169604511 4.133258577931315 C 0.0 **** -0.24
13407 H 74.30994474218426 9.33292621615675 3.763378899444035 H 0.0 **** 0.06
13408 H 75.94881521858133 8.857356135478014 4.269394977229524 H 0.0 **** 0.06
13409 H 75.11898246464932 10.203442124178899 5.088085886121689 H 0.0 **** 0.06
13410 H 75.69159934101219 10.397723639504477 3.413980088612334 H 0.0 **** 0.06
13411 C 49.21892061214979 161.00938024828258 72.93497807661844 C 0.0 **** -0.24
13412 H 49.042652609371714 160.39663069811462 73.81934420666833 H 0.0 **** 0.06
13413 H 48.35670810792243 160.9436414911164 72.27107681801202 H 0.0 **** 0.06
13414 H 50.10703642522233 160.64920490157203 72.41558142421634 H 0.0 **** 0.06
13415 H 49.369665781257936 162.0459429657821 73.23511047631519 H 0.0 **** 0.06
13416 C 150.63491632307614 10.609961196723354 86.41041478289549 C 0.0 **** -0.24
13417 H 149.60974251824183 10.263677963350204 86.28299650045818 H 0.0 **** 0.06
13418 H 150.77134110998492 10.972808797346126 87.42931701672205 H 0.0 **** 0.06
13419 H 150.83636042348826 11.417796908070734 85.70666013512988 H 0.0 **** 0.06
13420 H 151.32298735451207 9.78543690624177 86.22386772341974 H 0.0 **** 0.06
13421 C 87.36323680174026 31.61841840061119 23.479121239376667 C 0.0 **** -0.24
13422 H 87.01243319067534 30.778270627177008 22.87966448036559 H 0.0 **** 0.06
13423 H 87.21651628057484 31.39611694239403 24.53666558537617 H 0.0 **** 0.06
13424 H 86.80194056879641 32.51434600116579 23.214183276420727 H 0.0 **** 0.06
13425 H 88.42321981794038 31.783706181726046 23.28632650596586 H 0.0 **** 0.06
13426 C 6.129957103568437 146.65868922092756 76.36666933427935 C 0.0 **** -0.24
13427 H 5.731322648852256 147.60767827730058 76.00791008186579 H 0.0 **** 0.06
13428 H 5.47883966324968 145.84568951883568 76.04354171801798 H 0.0 **** 0.06
13429 H 6.178452831508714 146.6744933731915 77.45528186235087 H 0.0 **** 0.06
13430 H 7.129738708080005 146.50857122165826 75.96007965818123 H 0.0 **** 0.06
13431 C 74.65913158265806 58.617563509503384 133.3289047620645 C 0.0 **** -0.24
13432 H 75.65985835869691 58.63250321775395 132.89836492796874 H 0.0 **** 0.06
13433 H 74.59819797254508 59.35214629505843 134.1316725192217 H 0.0 **** 0.06
13434 H 74.4493640466012 57.6240634934926 133.72727293900164 H 0.0 **** 0.06
13435 H 73.9284125008486 58.8601809210447 132.5570166310647 H 0.0 **** 0.06
13436 C 82.02833346670747 109.99947552654774 140.53918129687514 C 0.0 **** -0.24
13437 H 81.21311677614835 110.677120498401 140.28437173313532 H 0.0 **** 0.06
13438 H 82.83285076766896 110.10994336402595 139.8109432341943 H 0.0 **** 0.06
13439 H 81.66495726367104 108.97251535244456 140.52830229334603 H 0.0 **** 0.06
13440 H 82.40330983591704 110.24215504357394 141.53433419095708 H 0.0 **** 0.06
13441 C 18.556682366661448 131.88460441487825 75.55487186503848 C 0.0 **** -0.24
13442 H 17.682109687480022 131.5974288577124 74.97090808884082 H 0.0 **** 0.06
13443 H 18.962701133076706 132.81845016162606 75.16511712111793 H 0.0 **** 0.06
13444 H 19.311844305840197 131.1021504654023 75.48654844009258 H 0.0 **** 0.06
13445 H 18.267331399791033 132.02128920971936 76.59772909243969 H 0.0 **** 0.06
13446 C 35.93225337613539 140.08312273415964 117.75071308436182 C 0.0 **** -0.24
13447 H 35.61423885164561 140.76584838538156 118.53885603635814 H 0.0 **** 0.06
13448 H 35.056814009566494 139.70957761508987 117.21928216426701 H 0.0 **** 0.06
13449 H 36.47535075231767 139.24737954516428 118.19112584109155 H 0.0 **** 0.06
13450 H 36.58250629610177 140.61309561341903 117.05418830683672 H 0.0 **** 0.06
13451 C 78.5916516712058 145.1759767345177 84.0240093070277 C 0.0 **** -0.24
13452 H 77.95188426752094 144.77583215171535 84.81127792152597 H 0.0 **** 0.06
13453 H 78.28068866059627 146.19304752370658 83.78588147647903 H 0.0 **** 0.06
13454 H 78.50621232489681 144.5510637412118 83.13524178208657 H 0.0 **** 0.06
13455 H 79.62653026343591 145.18251704446138 84.3656953755868 H 0.0 **** 0.06
13456 C 21.57034237356828 99.61857923731407 99.6003443381712 C 0.0 **** -0.24
13457 H 22.460485003665497 100.23907117942082 99.70505685228895 H 0.0 **** 0.06
13458 H 21.430920391155205 99.35749857686835 98.55052659005486 H 0.0 **** 0.06
13459 H 20.700539579754548 100.16966448644666 99.95583830362574 H 0.0 **** 0.06
13460 H 21.691115118375002 98.70890461659417 100.18874461916616 H 0.0 **** 0.06
13461 C 64.37661520227932 130.99172184559916 134.8167487482953 C 0.0 **** -0.24
13462 H 63.992593489521326 130.96428040674903 133.79668200176334 H 0.0 **** 0.06
13463 H 65.41189504355171 130.65234569990108 134.8238413895887 H 0.0 **** 0.06
13464 H 63.77533123390296 130.33783104658679 135.4482875545945 H 0.0 **** 0.06
13465 H 64.32475264381522 132.01188356667524 135.19711856012043 H 0.0 **** 0.06
13466 C 47.22095759309869 136.4887333717796 113.8234931544493 C 0.0 **** -0.24
13467 H 48.100974111961435 136.3888718718979 113.18775462546012 H 0.0 **** 0.06
13468 H 47.071228558567526 135.56554056064832 114.38314670797894 H 0.0 **** 0.06
13469 H 46.34625447306951 136.685581856607 113.20417904941462 H 0.0 **** 0.06
13470 H 47.368184077858004 137.3159293200041 114.5185471878172 H 0.0 **** 0.06
13471 C 85.67991207710239 10.947084153420235 88.13918978549172 C 0.0 **** -0.24
13472 H 86.32087617946392 11.2740190432973 88.95780290872378 H 0.0 **** 0.06
13473 H 85.0415359438258 11.773502206911246 87.82521526666928 H 0.0 **** 0.06
13474 H 85.0594149111956 10.116571013077419 88.47507522906596 H 0.0 **** 0.06
13475 H 86.29688110614985 10.62489123363855 87.30058869812254 H 0.0 **** 0.06
13476 C 114.76139587359094 12.563191596963549 76.49405513512308 C 0.0 **** -0.24
13477 H 114.8722667317665 13.549395486551191 76.04277317196994 H 0.0 **** 0.06
13478 H 115.72845185695019 12.223437057865993 76.86541944060895 H 0.0 **** 0.06
13479 H 114.39137017700213 11.86102875398916 75.74768180413909 H 0.0 **** 0.06
13480 H 114.05453266520516 12.620544402190461 77.32184129015602 H 0.0 **** 0.06
13481 C 157.10112845513436 54.24310301789245 36.039619584668245 C 0.0 **** -0.24
13482 H 156.6543876878935 54.2631975768125 37.03397554220386 H 0.0 **** 0.06
13483 H 158.16619850256362 54.02699748894187 36.125165239941765 H 0.0 **** 0.06
13484 H 156.96399755151995 55.21270888685484 35.56079035253447 H 0.0 **** 0.06
13485 H 156.61962774828393 53.470916994231374 35.44052807449762 H 0.0 **** 0.06
13486 C 48.6759070107403 73.5177863445208 40.87065242799031 C 0.0 **** -0.24
13487 H 48.950023062779564 74.46500786523654 41.33576387115454 H 0.0 **** 0.06
13488 H 48.433347793799726 72.78993193039383 41.64550071057363 H 0.0 **** 0.06
13489 H 49.51217129266655 73.15045920899257 40.2769491002216 H 0.0 **** 0.06
13490 H 47.80990315143697 73.66637534183178 40.22727740734172 H 0.0 **** 0.06
13491 C 144.96463958562123 10.212087905467286 3.151253414577752 C 0.0 **** -0.24
13492 H 143.934238733383 10.559949515111896 3.0829070971594135 H 0.0 **** 0.06
13493 H 145.44804745303787 10.313842581548784 2.179432604597814 H 0.0 **** 0.06
13494 H 144.97540447072487 9.165457607120516 3.4552829989906257 H 0.0 **** 0.06
13495 H 145.5015996481258 10.810126474579533 3.8889448672114852 H 0.0 **** 0.06
13496 C 120.9041470600813 35.70298907167958 143.95471066723496 C 0.0 **** -0.24
13497 H 121.93206712015683 35.740474340465354 143.59276579768505 H 0.0 **** 0.06
13498 H 120.2506019633887 35.35110592748161 143.1567946938652 H 0.0 **** 0.06
13499 H 120.59337342856168 36.70017418872868 144.2667146004041 H 0.0 **** 0.06
13500 H 120.84309396850642 35.0215974217448 144.8033152847193 H 0.0 **** 0.06
13501 C 93.96005136805253 156.15937358197544 94.26633893035778 C 0.0 **** -0.24
13502 H 93.14335342809736 155.52799674748002 94.61548733230404 H 0.0 **** 0.06
13503 H 93.56417715499062 156.93707166440393 93.61285735448008 H 0.0 **** 0.06
13504 H 94.67823959839707 155.5529013957292 93.71543968498675 H 0.0 **** 0.06
13505 H 94.45376747070151 156.62074434982705 95.12182843461437 H 0.0 **** 0.06
13506 C 91.25053249936197 106.05821193722883 95.03063441523247 C 0.0 **** -0.24
13507 H 91.78813825745706 105.2778695327982 95.56990768248119 H 0.0 **** 0.06
13508 H 90.51411031163495 106.51483794822101 95.69147470327104 H 0.0 **** 0.06
13509 H 90.74541842711359 105.6216938532084 94.16868684807105 H 0.0 **** 0.06
13510 H 91.95606267134686 106.8169600929123 94.69198670723264 H 0.0 **** 0.06
13511 C 113.85783102231241 2.8848089857161483 30.03368369863756 C 0.0 **** -0.24
13512 H 113.0478531552942 2.8576386809261294 29.30527209537547 H 0.0 **** 0.06
13513 H 114.53112495124611 2.0446353203763863 29.85933520033447 H 0.0 **** 0.06
13514 H 113.44310269526196 2.8149030492851637 31.039628752862285 H 0.0 **** 0.06
13515 H 114.4080053285141 3.8199860049977588 29.930911997823273 H 0.0 **** 0.06
13516 C 93.5909997033329 141.0935854420029 73.47603651887682 C 0.0 **** -0.24
13517 H 94.52787523724204 141.14498613599795 74.03043984464436 H 0.0 **** 0.06
13518 H 93.44355063955922 140.079174549321 73.10551908494199 H 0.0 **** 0.06
13519 H 93.62790285555499 141.7861860497627 72.63565780246435 H 0.0 **** 0.06
13520 H 92.76446704128746 141.3633089089322 74.13464787116357 H 0.0 **** 0.06
13521 C 82.5250231423918 1.9073522335582354 81.44606313783449 C 0.0 **** -0.24
13522 H 81.9665908812975 1.6394842862626433 82.34326603723534 H 0.0 **** 0.06
13523 H 83.34940932341657 2.5674938786936465 81.71633947653905 H 0.0 **** 0.06
13524 H 81.86424292423509 2.418144022753694 80.74531059798933 H 0.0 **** 0.06
13525 H 82.92000466933159 1.0040074976404654 80.98176504106243 H 0.0 **** 0.06
13526 C 97.64665015638883 77.82305482156885 85.87797657621009 C 0.0 **** -0.24
13527 H 98.02964219064597 78.74676703876098 86.31198429858075 H 0.0 **** 0.06
13528 H 98.01254775308988 77.72292243361848 84.85626365148691 H 0.0 **** 0.06
13529 H 96.55695208371458 77.84729242634965 85.87403917827085 H 0.0 **** 0.06
13530 H 97.98843563056926 76.97466946338949 86.471548689553 H 0.0 **** 0.06
13531 C 87.6611723368398 98.80466935284767 70.39664773475633 C 0.0 **** -0.24
13532 H 88.64232198982563 98.57337287106736 69.98199830281862 H 0.0 **** 0.06
13533 H 87.20581657110404 97.89284484520931 70.78327941278627 H 0.0 **** 0.06
13534 H 87.02788778500246 99.22572277950462 69.61624109581106 H 0.0 **** 0.06
13535 H 87.7715400132945 99.5273521120609 71.20565916054079 H 0.0 **** 0.06
13536 C 25.69760759114058 103.43390685401334 32.16066275562366 C 0.0 **** -0.24
13537 H 24.745789022040064 103.76661006569637 31.74715722202609 H 0.0 **** 0.06
13538 H 26.095075007609672 102.62265010932487 31.550575049083818 H 0.0 **** 0.06
13539 H 25.546382416442235 103.08128692835749 33.180999953015544 H 0.0 **** 0.06
13540 H 26.402515230598375 104.26504948445364 32.164661722545134 H 0.0 **** 0.06
13541 C 155.80131003812593 8.883833928141982 75.52437383666297 C 0.0 **** -0.24
13542 H 155.63371927848223 9.045859514104144 76.58970521136473 H 0.0 **** 0.06
13543 H 154.89556850069283 9.135775832853561 74.97220772137729 H 0.0 **** 0.06
13544 H 156.05416575929917 7.838093933820822 75.35160033747542 H 0.0 **** 0.06
13545 H 156.62229768478113 9.517172912610263 75.18579456798051 H 0.0 **** 0.06
13546 C 106.2617387287714 136.7977934209154 86.53565141486098 C 0.0 **** -0.24
13547 H 107.1545765086662 136.32991576088426 86.12163688483611 H 0.0 **** 0.06
13548 H 105.61290354698008 137.12528205509528 85.7229909852349 H 0.0 **** 0.06
13549 H 106.55053695283706 137.65878494792108 87.13953888037179 H 0.0 **** 0.06
13550 H 105.72952601259266 136.07909863089674 87.15856093476674 H 0.0 **** 0.06
13551 C 101.87068622750584 37.92430442176595 139.9209660555976 C 0.0 **** -0.24
13552 H 101.46705366170232 37.47644627366691 140.82900607939564 H 0.0 **** 0.06
13553 H 102.26203039962144 38.915788225785604 140.14911176651555 H 0.0 **** 0.06
13554 H 101.07998993496273 38.00812207046704 139.17442813012292 H 0.0 **** 0.06
13555 H 102.67267576793924 37.29698615234011 139.53231529771006 H 0.0 **** 0.06
13556 C 68.55554954112283 53.78564892091694 133.2193305102905 C 0.0 **** -0.24
13557 H 69.54154593784833 53.33599090828692 133.33147594574822 H 0.0 **** 0.06
13558 H 68.61025346106442 54.84671675815106 133.46824709022667 H 0.0 **** 0.06
13559 H 67.85206635726217 53.29137788233842 133.88974562263067 H 0.0 **** 0.06
13560 H 68.21835380753735 53.6715985291374 132.1890623883604 H 0.0 **** 0.06
13561 C 47.149993665942134 22.953295646637493 46.4003388168573 C 0.0 **** -0.24
13562 H 48.007841908904 22.44060819225642 46.836799418415524 H 0.0 **** 0.06
13563 H 46.600692354293315 23.474602089877934 47.184942249888365 H 0.0 **** 0.06
13564 H 46.496304206156196 22.224591223665634 45.921756757392814 H 0.0 **** 0.06
13565 H 47.49591313676366 23.673909738380395 45.65962234517781 H 0.0 **** 0.06
13566 C 18.061606688775825 111.93273732778118 47.10479668983666 C 0.0 **** -0.24
13567 H 17.811427622570285 110.87163647392069 47.08687209441271 H 0.0 **** 0.06
13568 H 18.401733676830844 112.20831033425654 48.104235071373736 H 0.0 **** 0.06
13569 H 17.178900370960314 112.51766486370119 46.84662971701873 H 0.0 **** 0.06
13570 H 18.853146244607267 112.13140841952949 46.38312103824862 H 0.0 **** 0.06
13571 C 124.00858087459451 2.5774805878184566 114.45930103399493 C 0.0 **** -0.24
13572 H 124.83318545109532 2.9951056383963532 115.03603098138188 H 0.0 **** 0.06
13573 H 124.39168581816693 2.1560420355089605 113.52976243103501 H 0.0 **** 0.06
13574 H 123.28828756630085 3.363793745887989 114.23281917486307 H 0.0 **** 0.06
13575 H 123.5203576822201 1.7931722790157778 115.03887025876637 H 0.0 **** 0.06
13576 C 134.55235641548646 78.91901857032377 145.48430710721053 C 0.0 **** -0.24
13577 H 134.85134053607592 78.86634926352025 144.43798389656837 H 0.0 **** 0.06
13578 H 133.65244681403456 79.52800663884159 145.57420214672362 H 0.0 **** 0.06
13579 H 135.3548975483369 79.36848018950926 146.06908641382296 H 0.0 **** 0.06
13580 H 134.35029400424997 77.91485625883746 145.85552894937703 H 0.0 **** 0.06
13581 C 147.55521777953467 78.94120963432863 84.230142497857 C 0.0 **** -0.24
13582 H 148.58214197461112 79.22075293806262 84.466032520216 H 0.0 **** 0.06
13583 H 147.47985586275766 78.69368202107728 83.17106717815437 H 0.0 **** 0.06
13584 H 146.89090841026845 79.77542320875392 84.45610629006535 H 0.0 **** 0.06
13585 H 147.26807306844566 78.07597002985119 84.82745831957487 H 0.0 **** 0.06
13586 C 66.92695968748183 127.74908257506888 48.496221729734884 C 0.0 **** -0.24
13587 H 67.44726838574252 128.42481186236807 47.817815045988425 H 0.0 **** 0.06
13588 H 66.05367564844147 127.33205336750433 47.99414354980985 H 0.0 **** 0.06
13589 H 66.6096135882056 128.29706964944063 49.382756241462914 H 0.0 **** 0.06
13590 H 67.59703977638037 126.94111935839868 48.789612193910784 H 0.0 **** 0.06
13591 C 92.16360423284053 60.00747385165164 156.03809873917754 C 0.0 **** -0.24
13592 H 92.25501146843483 60.43792551402116 155.04169225069597 H 0.0 **** 0.06
13593 H 92.75637552403545 60.59151427279852 156.74240538516798 H 0.0 **** 0.06
13594 H 92.52563321667095 58.97935457386569 156.0232115679291 H 0.0 **** 0.06
13595 H 91.11730739109501 60.019691333130154 156.34501654195932 H 0.0 **** 0.06
13596 C 150.95835094680533 143.95930030293056 43.74727419865037 C 0.0 **** -0.24
13597 H 150.75781936798973 144.28134935292786 44.7692000061286 H 0.0 **** 0.06
13598 H 151.3619983100069 144.79545850565628 43.17549701317668 H 0.0 **** 0.06
13599 H 150.03157876736128 143.61818398805084 43.28641214801053 H 0.0 **** 0.06
13600 H 151.68098936020272 143.14386192232283 43.75909799606302 H 0.0 **** 0.06
13601 C 132.28421968989875 162.40139459805752 127.3776510998851 C 0.0 **** -0.24
13602 H 131.2586573419608 162.12982346563697 127.12632886801617 H 0.0 **** 0.06
13603 H 132.432315842357 162.3040294578894 128.45335246569465 H 0.0 **** 0.06
13604 H 132.47079827126956 163.43287413644765 127.07706453781668 H 0.0 **** 0.06
13605 H 132.97354982508745 161.74023161721507 126.85304046704533 H 0.0 **** 0.06
13606 C 155.45933133987333 146.32433989271303 47.40414036307419 C 0.0 **** -0.24
13607 H 155.4719341096419 147.40941764925984 47.50473994255634 H 0.0 **** 0.06
13608 H 154.85783789687636 146.0468615453206 46.538124034758994 H 0.0 **** 0.06
13609 H 155.0299030765197 145.88158095187492 48.30244360888878 H 0.0 **** 0.06
13610 H 156.4786764303752 145.96034740880066 47.270776382120744 H 0.0 **** 0.06
13611 C 18.658668611821412 122.59107232418887 113.91937020289936 C 0.0 **** -0.24
13612 H 17.69957315170931 122.75953137980756 114.40824367820221 H 0.0 **** 0.06
13613 H 18.56031397568085 122.78028156284233 112.85008440952629 H 0.0 **** 0.06
13614 H 18.970596584773624 121.55837497686048 114.07817200054899 H 0.0 **** 0.06
13615 H 19.40476440848405 123.26446713279361 114.34099603629386 H 0.0 **** 0.06
13616 C 11.214409491126553 116.85796225169418 108.26324834865574 C 0.0 **** -0.24
13617 H 12.089316280081249 116.24522220678276 108.04755044912707 H 0.0 **** 0.06
13618 H 11.086830506691989 116.94376730091051 109.3426565068824 H 0.0 **** 0.06
13619 H 10.328890424531572 116.39379465527881 107.82821581702501 H 0.0 **** 0.06
13620 H 11.352422081503839 117.85080939633352 107.83318326301969 H 0.0 **** 0.06
13621 C 6.80721835595665 17.07364721230971 83.31971718436964 C 0.0 **** -0.24
13622 H 7.82852981515498 17.420556167262532 83.47585150826359 H 0.0 **** 0.06
13623 H 6.686022367699479 16.752509876915667 82.28503307373185 H 0.0 **** 0.06
13624 H 6.111214650637521 17.88481986754317 83.53303060668443 H 0.0 **** 0.06
13625 H 6.602630069866279 16.23612907219075 83.9868092771058 H 0.0 **** 0.06
13626 C 115.20134622728264 118.51706694237495 123.13182381499885 C 0.0 **** -0.24
13627 H 115.10015570595823 119.58789368493092 122.95493847186356 H 0.0 **** 0.06
13628 H 114.52841479718458 117.97395503013837 122.46770137137256 H 0.0 **** 0.06
13629 H 114.94770311676933 118.29466232219735 124.16834502342331 H 0.0 **** 0.06
13630 H 116.2291516896621 118.21278549067819 122.93534081392903 H 0.0 **** 0.06
13631 C 42.229151912021734 78.02731326920104 149.873338148934 C 0.0 **** -0.24
13632 H 42.14657271866855 76.94896961573681 150.01203754077378 H 0.0 **** 0.06
13633 H 41.70979147001981 78.53867376473085 150.68438010735352 H 0.0 **** 0.06
13634 H 41.78056521397053 78.30652742836816 148.91995927138672 H 0.0 **** 0.06
13635 H 43.28095744182116 78.31305746506916 149.87748949612077 H 0.0 **** 0.06
13636 C 88.55722962274247 34.21984687242981 105.21202798317694 C 0.0 **** -0.24
13637 H 89.53050208027801 34.11890574307418 105.69258336620328 H 0.0 **** 0.06
13638 H 88.6650810182568 34.79402438058459 104.29150848930689 H 0.0 **** 0.06
13639 H 87.87134644902726 34.73573126459415 105.88445451506482 H 0.0 **** 0.06
13640 H 88.16298207758165 33.23070750601113 104.97968118610058 H 0.0 **** 0.06
13641 C 135.20296275653055 4.640348241913159 3.1701042975579554 C 0.0 **** -0.24
13642 H 135.65335282975812 5.577105853052558 2.842931873807366 H 0.0 **** 0.06
13643 H 134.5026468397314 4.838176479294702 3.981467628403834 H 0.0 **** 0.06
13644 H 135.98353096356902 3.9654474065526983 3.5206338666619104 H 0.0 **** 0.06
13645 H 134.67319216112 4.181593655233655 2.335995693387815 H 0.0 **** 0.06
13646 C 37.12116756635129 77.0606368024236 26.677480183219814 C 0.0 **** -0.24
13647 H 37.600514740771416 77.11851817104764 25.700050440864686 H 0.0 **** 0.06
13648 H 37.750742771033345 76.48613712327786 27.35704330744042 H 0.0 **** 0.06
13649 H 36.15183265654747 76.5707536066253 26.57799056054975 H 0.0 **** 0.06
13650 H 36.981290833008586 78.0661905390035 27.07341580818155 H 0.0 **** 0.06
13651 C 144.6978665256641 73.79264284216941 79.96792502161689 C 0.0 **** -0.24
13652 H 143.8371758272356 73.90760334382438 79.30921988697088 H 0.0 **** 0.06
13653 H 145.2767815862972 74.71669013306582 79.97237929410969 H 0.0 **** 0.06
13654 H 145.32188833624983 72.97403880720753 79.61101882467047 H 0.0 **** 0.06
13655 H 144.35439029619894 73.57426976870568 80.97968496017243 H 0.0 **** 0.06
13656 C 28.53612669944374 154.21516629422604 69.48137294981731 C 0.0 **** -0.24
13657 H 28.09107375620627 153.95002986294074 68.52121282147381 H 0.0 **** 0.06
13658 H 29.569198129997744 154.52719149787066 69.32886216286256 H 0.0 **** 0.06
13659 H 28.51217610230742 153.34862001467292 70.14306381923836 H 0.0 **** 0.06
13660 H 27.970796743507634 155.0309394451573 69.9300465632951 H 0.0 **** 0.06
13661 C 8.540234287988767 86.42864233395119 106.79907453560907 C 0.0 **** -0.24
13662 H 7.478053118205878 86.66274748511393 106.87068318359343 H 0.0 **** 0.06
13663 H 8.69242832079783 85.36689096265582 106.99674826084515 H 0.0 **** 0.06
13664 H 9.09252705007134 87.01689345644093 107.53147753874089 H 0.0 **** 0.06
13665 H 8.897435110208164 86.66646437064219 105.79792017294949 H 0.0 **** 0.06
13666 C 158.6002587895899 69.82910405164859 115.31320525990805 C 0.0 **** -0.24
13667 H 159.19996690596142 70.56605070074272 114.77981361989032 H 0.0 **** 0.06
13668 H 158.63180865121163 68.87901075412543 114.77756614354564 H 0.0 **** 0.06
13669 H 157.5691371073626 70.17732406768198 115.37695293264903 H 0.0 **** 0.06
13670 H 159.00049404476954 69.69312682761233 116.3174660648155 H 0.0 **** 0.06
13671 C 115.85965446436944 125.13692603436121 38.08777972332338 C 0.0 **** -0.24
13672 H 115.49822592121262 124.77975822901655 39.05231766240232 H 0.0 **** 0.06
13673 H 116.7556321212823 125.73959451366582 38.23718054132914 H 0.0 **** 0.06
13674 H 115.08876321566999 125.74325988145827 37.613258097105785 H 0.0 **** 0.06
13675 H 116.09657909282407 124.28497550006861 37.45073902325048 H 0.0 **** 0.06
13676 C 45.335549487560755 28.58386609931363 11.031409541254803 C 0.0 **** -0.24
13677 H 46.20350302188049 29.179271498475345 11.316793431504173 H 0.0 **** 0.06
13678 H 44.80285333827649 28.266237757306193 11.92791493054613 H 0.0 **** 0.06
13679 H 45.66326352586175 27.707866112745272 10.473587595450589 H 0.0 **** 0.06
13680 H 44.67281040496704 29.184834179163097 10.408529826349678 H 0.0 **** 0.06
13681 C 53.3137140358879 16.72900709164651 118.75399125695955 C 0.0 **** -0.24
13682 H 52.63427178717873 16.083430772754156 119.31000140671819 H 0.0 **** 0.06
13683 H 54.32158860227261 16.626708268007548 119.15447299381611 H 0.0 **** 0.06
13684 H 52.98786458697805 17.76535755046112 118.8479526694376 H 0.0 **** 0.06
13685 H 53.30881635916782 16.44107568041366 117.70200626831848 H 0.0 **** 0.06
13686 C 102.30594911336277 153.6900787824288 5.394272043947012 C 0.0 **** -0.24
13687 H 102.05276485216348 152.84748847829533 4.750264135272147 H 0.0 **** 0.06
13688 H 101.89731300514262 154.60735428618744 4.969480260821456 H 0.0 **** 0.06
13689 H 103.39003329736704 153.77511360853103 5.470110159896791 H 0.0 **** 0.06
13690 H 101.88416973397 153.52869365419104 6.386237187715096 H 0.0 **** 0.06
13691 C 127.72757773741876 22.775683810760995 113.62364392160418 C 0.0 **** -0.24
13692 H 127.93436250507301 23.846353197700232 113.62354622752548 H 0.0 **** 0.06
13693 H 128.52400240699654 22.252343746090823 113.09385169715836 H 0.0 **** 0.06
13694 H 126.77579897359271 22.590051188890776 113.12638085685103 H 0.0 **** 0.06
13695 H 127.6768472306967 22.41609912284673 114.65057482205879 H 0.0 **** 0.06
13696 C 149.15052151476888 34.51264964485392 53.49696559816499 C 0.0 **** -0.24
13697 H 148.69509001822274 34.524482820008245 52.50644300798649 H 0.0 **** 0.06
13698 H 150.21195317462616 34.74865659957675 53.411166688845185 H 0.0 **** 0.06
13699 H 149.032415777511 33.5234300990397 53.93844103334601 H 0.0 **** 0.06
13700 H 148.66298576627662 35.25461786300828 54.12856743771556 H 0.0 **** 0.06
13701 C 162.25015806169176 5.679019922406326 28.831506751797747 C 0.0 **** -0.24
13702 H 162.70811608552413 5.539472206374512 29.81154592793297 H 0.0 **** 0.06
13703 H 161.6995030056196 6.6196749442344185 28.819759508881077 H 0.0 **** 0.06
13704 H 161.56695866228034 4.854279587270327 28.62916592535501 H 0.0 **** 0.06
13705 H 163.02754042943744 5.703248619170864 28.068627702378876 H 0.0 **** 0.06
13706 C 110.74718502239588 34.23255451062755 65.9071589714074 C 0.0 **** -0.24
13707 H 111.46867279336655 34.95728756835183 65.53045320446824 H 0.0 **** 0.06
13708 H 111.1047535997748 33.223669371144126 65.70047478384885 H 0.0 **** 0.06
13709 H 109.78691737663786 34.38643086797035 65.41280987050578 H 0.0 **** 0.06
13710 H 110.62747462905165 34.3633193270623 66.98191280035738 H 0.0 **** 0.06
13711 C 24.152952407273915 132.33771613019564 112.42006752902299 C 0.0 **** -0.24
13712 H 24.26664798580947 132.3487980761837 113.50353941484042 H 0.0 **** 0.06
13713 H 24.849307904415525 131.6180646879585 111.98929184785723 H 0.0 **** 0.06
13714 H 24.36307826003798 133.33003114489725 112.02238567121975 H 0.0 **** 0.06
13715 H 23.13209705315566 132.0529012294611 112.16568264265442 H 0.0 **** 0.06
13716 C 101.47331288032214 23.99978215321363 63.6898675022336 C 0.0 **** -0.24
13717 H 102.3469652203149 23.94173095168378 64.33887712864856 H 0.0 **** 0.06
13718 H 101.75997127849288 24.433068181383135 62.731892543227104 H 0.0 **** 0.06
13719 H 100.71259902606184 24.624210526400248 64.15908441847034 H 0.0 **** 0.06
13720 H 101.0726896088884 22.997483692332594 63.530617017700024 H 0.0 **** 0.06
13721 C 139.6834055094571 25.919154932884474 135.93041063415419 C 0.0 **** -0.24
13722 H 140.09587096299316 26.87665898671313 136.24805050010474 H 0.0 **** 0.06
13723 H 139.77882121814477 25.824233121348776 134.84788090940893 H 0.0 **** 0.06
13724 H 138.6305592936582 25.865941846300522 136.20862653570106 H 0.0 **** 0.06
13725 H 140.22878102588245 25.10875792143338 136.4151416082005 H 0.0 **** 0.06
13726 C 78.62936495260604 87.11745580268028 112.47365532750914 C 0.0 **** -0.24
13727 H 78.38942451466332 86.24074630698459 113.0761650251109 H 0.0 **** 0.06
13728 H 79.25095002910508 87.79858579154353 113.05541456155649 H 0.0 **** 0.06
13729 H 77.70826291122609 87.62203657088162 112.18527523797218 H 0.0 **** 0.06
13730 H 79.16934160718864 86.8062713494981 111.57874843865338 H 0.0 **** 0.06
13731 C 12.858807903368394 24.189838561509106 57.61627140539713 C 0.0 **** -0.24
13732 H 13.538414090390773 24.59754682343464 58.36544581591262 H 0.0 **** 0.06
13733 H 11.879952206397512 24.02469232169335 58.06621595002467 H 0.0 **** 0.06
13734 H 13.253080192418338 23.243133920084233 57.24599912583089 H 0.0 **** 0.06
13735 H 12.764866243065647 24.893864953619072 56.79022078865374 H 0.0 **** 0.06
13736 C 156.15214156288113 100.89141976854484 60.442253303572784 C 0.0 **** -0.24
13737 H 155.21372289140922 100.35852349062347 60.59325591621098 H 0.0 **** 0.06
13738 H 156.7357944060814 100.86752560323481 61.362957006173644 H 0.0 **** 0.06
13739 H 155.94225555754582 101.9271045486937 60.171242568734556 H 0.0 **** 0.06
13740 H 156.71648221958776 100.4142059012811 59.641276153961996 H 0.0 **** 0.06
13741 C 161.89661995543858 33.9828898363254 22.555805540014774 C 0.0 **** -0.24
13742 H 161.90899835093865 34.59611639306348 21.654803421034728 H 0.0 **** 0.06
13743 H 160.864149483702 33.760867726445895 22.828005470663015 H 0.0 **** 0.06
13744 H 162.378902512523 34.52384869874308 23.3695873788688 H 0.0 **** 0.06
13745 H 162.4319850754637 33.05263672945239 22.36928433123967 H 0.0 **** 0.06
13746 C 98.70256356539642 23.491026271385294 83.35605699762984 C 0.0 **** -0.24
13747 H 98.7536451876785 23.890665339954722 82.34317193834936 H 0.0 **** 0.06
13748 H 98.82041411283379 24.304582895555313 84.07352532217922 H 0.0 **** 0.06
13749 H 99.49881153221156 22.76076425540961 83.49896398701232 H 0.0 **** 0.06
13750 H 97.73595388157688 23.010730008788414 83.508540046687 H 0.0 **** 0.06
13751 C 59.795894913201295 85.43523081488445 56.21410855542683 C 0.0 **** -0.24
13752 H 58.98606351963687 85.99704652571522 55.74982626590423 H 0.0 **** 0.06
13753 H 59.606412073728364 85.34166679777199 57.28421693082089 H 0.0 **** 0.06
13754 H 60.73881383009048 85.95846581975948 56.05570117687796 H 0.0 **** 0.06
13755 H 59.85196879218152 84.4428243509819 55.766915103742804 H 0.0 **** 0.06
13756 C 108.51361045601067 25.780071163695766 158.97768850393962 C 0.0 **** -0.24
13757 H 108.7153715939425 26.77910896775171 159.36422798194047 H 0.0 **** 0.06
13758 H 107.91289462584368 25.856090105061185 158.07043411979726 H 0.0 **** 0.06
13759 H 107.96928425260623 25.203222137419516 159.72595588039175 H 0.0 **** 0.06
13760 H 109.45493215216274 25.282074357963324 158.74868096181615 H 0.0 **** 0.06
13761 C 107.22812663876664 47.40778487667494 140.30691723998405 C 0.0 **** -0.24
13762 H 106.68563824764192 47.9145074317255 141.10530277657278 H 0.0 **** 0.06
13763 H 108.20172745409934 47.88089612358024 140.17310729009304 H 0.0 **** 0.06
13764 H 106.65905559677503 47.47856641976334 139.37956078178914 H 0.0 **** 0.06
13765 H 107.36619117683841 46.35939775173007 140.56954329875106 H 0.0 **** 0.06
13766 C 118.45178888382023 81.60891406618072 144.83995370633082 C 0.0 **** -0.24
13767 H 117.61598122786515 81.34506250825608 144.19196854232536 H 0.0 **** 0.06
13768 H 118.16346480906691 82.43887702597225 145.4845415978592 H 0.0 **** 0.06
13769 H 119.30624443576448 81.90051598941832 144.22932216370873 H 0.0 **** 0.06
13770 H 118.7205696998299 80.74859079460542 145.45280490664683 H 0.0 **** 0.06
13771 C 115.57819417529552 98.3580402849253 30.509525001567198 C 0.0 **** -0.24
13772 H 116.38085149077023 98.72812318034966 29.871821517329977 H 0.0 **** 0.06
13773 H 115.98141645571565 98.10535413089391 31.48978687137378 H 0.0 **** 0.06
13774 H 115.135617447496 97.47080597951097 30.057040776295423 H 0.0 **** 0.06
13775 H 114.81580227087218 99.13023690707058 30.617552080685158 H 0.0 **** 0.06
13776 C 141.16775292041646 76.60628231256499 159.30951556009157 C 0.0 **** -0.24
13777 H 141.2408571338153 75.82152250116894 160.06209821490998 H 0.0 **** 0.06
13778 H 142.1650892103337 76.85568251468828 158.94609741858528 H 0.0 **** 0.06
13779 H 140.70985976819208 77.49113094645156 159.75018955906498 H 0.0 **** 0.06
13780 H 140.55545854941727 76.25697593040769 158.4779733068206 H 0.0 **** 0.06
13781 C 152.01819819885787 116.1620246444212 111.92995796826546 C 0.0 **** -0.24
13782 H 151.9732984077985 115.37165217905465 111.1813718342853 H 0.0 **** 0.06
13783 H 152.48773136316427 117.04586030219139 111.49779480195019 H 0.0 **** 0.06
13784 H 152.60378818603184 115.82026785696883 112.7845172569505 H 0.0 **** 0.06
13785 H 151.00824690209646 116.4101861812286 112.25752950162598 H 0.0 **** 0.06
13786 C 25.569593411734445 149.28347361507844 127.7284086248078 C 0.0 **** -0.24
13787 H 26.528537734870895 148.7713851220097 127.64452752614628 H 0.0 **** 0.06
13788 H 24.761687247385538 148.56664133577436 127.57743840718845 H 0.0 **** 0.06
13789 H 25.508743851177087 150.0658383428919 126.97208355501871 H 0.0 **** 0.06
13790 H 25.481422194234653 149.72864034592936 128.71957222463445 H 0.0 **** 0.06
13791 C 46.11936636293609 16.86392800068947 145.46242125297155 C 0.0 **** -0.24
13792 H 45.13277993607329 17.058853093616932 145.04247211983267 H 0.0 **** 0.06
13793 H 46.87741551594405 17.35909142259294 144.8552923267456 H 0.0 **** 0.06
13794 H 46.304702016076874 15.789930182007424 145.47159900289975 H 0.0 **** 0.06
13795 H 46.161426215838475 17.248027212638107 146.4822347932043 H 0.0 **** 0.06
13796 C 69.34656448715131 108.41296463426298 131.51828304454963 C 0.0 **** -0.24
13797 H 70.05588238084903 107.64190495670252 131.82000472639686 H 0.0 **** 0.06
13798 H 69.57275844385556 109.34036881267104 132.04519448221234 H 0.0 **** 0.06
13799 H 68.33482962081676 108.09207628678206 131.76505230029036 H 0.0 **** 0.06
13800 H 69.42501264489776 108.57765623136098 130.4430451825461 H 0.0 **** 0.06
13801 C 73.22606165700626 52.90207111038127 81.66977423265327 C 0.0 **** -0.24
13802 H 73.24495951020077 53.799456504767974 82.28808578592556 H 0.0 **** 0.06
13803 H 72.48521813112285 52.20613772435897 82.063119427065 H 0.0 **** 0.06
13804 H 74.20943603357014 52.4317685473311 81.68258824112851 H 0.0 **** 0.06
13805 H 72.96454220799745 53.17161678014328 80.64601664585096 H 0.0 **** 0.06
13806 C 139.7193523677191 54.389379145708915 1.350369465036124 C 0.0 **** -0.24
13807 H 138.67579467169816 54.54157420767139 1.0743244281551299 H 0.0 **** 0.06
13808 H 140.33953322392054 54.41528633582435 0.4533614194556499 H 0.0 **** 0.06
13809 H 139.82739157079783 53.42236794493287 1.8396318338011 H 0.0 **** 0.06
13810 H 140.03381453619573 55.17970283482286 2.0316637139329075 H 0.0 **** 0.06
13811 C 77.85684329136369 57.905513268257025 135.2568976758284 C 0.0 **** -0.24
13812 H 77.44557486624016 57.63865880803738 136.23046628567621 H 0.0 **** 0.06
13813 H 77.09334541992 57.77189722023269 134.4910363408012 H 0.0 **** 0.06
13814 H 78.71062704331463 57.26451312483674 135.0355179136097 H 0.0 **** 0.06
13815 H 78.17862697474219 58.94685327052673 135.27210026059558 H 0.0 **** 0.06
13816 C 115.82646331926824 109.51221752168252 21.02041183442401 C 0.0 **** -0.24
13817 H 116.18617455163042 110.46140944783807 21.421093075644308 H 0.0 **** 0.06
13818 H 114.74235682975473 109.55148142495543 20.915182013762774 H 0.0 **** 0.06
13819 H 116.09779614371445 108.70539504875734 21.702113299615974 H 0.0 **** 0.06
13820 H 116.28065806087633 109.33478229577779 20.046436125288437 H 0.0 **** 0.06
13821 C 29.282467365324578 102.64072099820083 61.4299205766597 C 0.0 **** -0.24
13822 H 30.05301737607965 102.09353188966054 60.88633375483977 H 0.0 **** 0.06
13823 H 28.521859580635862 102.98757135929532 60.730790069516274 H 0.0 **** 0.06
13824 H 29.73219770243651 103.4961359969306 61.93375155204643 H 0.0 **** 0.06
13825 H 28.824306567315375 101.98290309728384 62.16925215508326 H 0.0 **** 0.06
13826 C 37.92032324305718 73.79888043585035 83.73423513744949 C 0.0 **** -0.24
13827 H 38.524060329769185 74.57265429841334 83.26074767731284 H 0.0 **** 0.06
13828 H 36.928826421923105 73.78314843497128 83.27902036712148 H 0.0 **** 0.06
13829 H 37.8279949258159 74.01002656184406 84.79986061959701 H 0.0 **** 0.06
13830 H 38.398713251589555 72.8292244483761 83.59593428763365 H 0.0 **** 0.06
13831 C 30.651642486175945 148.29297519505707 8.4679960493566 C 0.0 **** -0.24
13832 H 29.62740830581518 148.05311207474028 8.752006361735994 H 0.0 **** 0.06
13833 H 31.184347061858034 147.37491368707208 8.218727563706864 H 0.0 **** 0.06
13834 H 31.15217910022514 148.78819290038942 9.300061779026635 H 0.0 **** 0.06
13835 H 30.643515379539764 148.95510460624232 7.602564117126974 H 0.0 **** 0.06
13836 C 63.69797177913895 123.61205845364066 147.04054541899015 C 0.0 **** -0.24
13837 H 63.48145891229501 124.2686321491841 146.19813043665417 H 0.0 **** 0.06
13838 H 63.434932938566476 124.11611437004098 147.9712887246011 H 0.0 **** 0.06
13839 H 64.76012937848907 123.36685156009662 147.04660154333135 H 0.0 **** 0.06
13840 H 63.114361579887486 122.69576062367213 146.94568599041276 H 0.0 **** 0.06
13841 C 1.1138254068845583 45.019030891911115 35.473720397734795 C 0.0 **** -0.24
13842 H 0.8386212424279904 45.59736982005735 34.59210109851314 H 0.0 **** 0.06
13843 H 1.5956838333102326 45.67271547718154 36.20145373178515 H 0.0 **** 0.06
13844 H 1.8026908701571074 44.22433790262069 35.18672511493071 H 0.0 **** 0.06
13845 H 0.21881539726922483 44.581342459831745 35.91538402800643 H 0.0 **** 0.06
13846 C 1.1931911199303329 129.61099666627524 108.91680712254555 C 0.0 **** -0.24
13847 H 1.080322998832031 128.53084509860238 109.0071133765112 H 0.0 **** 0.06
13848 H 1.4761041756285351 129.86188787874468 107.89463509697032 H 0.0 **** 0.06
13849 H 1.9685013512441856 129.9530821252295 109.60288398548522 H 0.0 **** 0.06
13850 H 0.2491285549953659 130.0961275866197 109.16298529499699 H 0.0 **** 0.06
13851 C 125.8968698940464 144.44621924965935 58.46118949643511 C 0.0 **** -0.24
13852 H 125.86244356180299 145.4623816428211 58.06776137339051 H 0.0 **** 0.06
13853 H 126.90191927096959 144.04371014135666 58.33818137297102 H 0.0 **** 0.06
13854 H 125.18616114038815 143.82284692447692 57.91974251820393 H 0.0 **** 0.06
13855 H 125.63718129942458 144.4585620827761 59.52050974731718 H 0.0 **** 0.06
13856 C 68.0595566134507 39.2807984274086 109.74147447456454 C 0.0 **** -0.24
13857 H 69.10688934316212 39.03407808787357 109.91248339423899 H 0.0 **** 0.06
13858 H 67.51637939216153 39.232964712440676 110.68520764323969 H 0.0 **** 0.06
13859 H 67.62928747831074 38.56837344426653 109.03723801812828 H 0.0 **** 0.06
13860 H 67.98627918794966 40.28800425670073 109.3297127341732 H 0.0 **** 0.06
13861 C 20.135114261345024 78.97807830121904 97.24470878888931 C 0.0 **** -0.24
13862 H 19.866924380941867 78.55342554810929 98.21233479976601 H 0.0 **** 0.06
13863 H 20.870919608666952 78.33651323707197 96.75790834497397 H 0.0 **** 0.06
13864 H 20.5589186094428 79.97211503848695 97.38930032117 H 0.0 **** 0.06
13865 H 19.244804737959612 79.05042859558489 96.62015115421784 H 0.0 **** 0.06
13866 C 158.3055313648502 151.86094349907108 132.29740084082152 C 0.0 **** -0.24
13867 H 157.99843388215692 151.44862008649886 131.3360921466521 H 0.0 **** 0.06
13868 H 157.76302123843257 152.78699257639732 132.48568971974817 H 0.0 **** 0.06
13869 H 159.37688451086692 152.06327595137742 132.2807305473146 H 0.0 **** 0.06
13870 H 158.0838888621588 151.14265186958295 133.08706001276886 H 0.0 **** 0.06
13871 C 56.016261754815844 45.1799110518446 125.76628175456236 C 0.0 **** -0.24
13872 H 56.51253407961033 44.98469602400418 126.71681724718877 H 0.0 **** 0.06
13873 H 55.262205203558125 45.95547110745872 125.90394148723388 H 0.0 **** 0.06
13874 H 55.53810630349773 44.26643036015376 125.41185649567393 H 0.0 **** 0.06
13875 H 56.751949811377756 45.51350040981741 125.0346868742125 H 0.0 **** 0.06
13876 C 71.95838172528002 106.5454488884892 64.51250141445252 C 0.0 **** -0.24
13877 H 72.63095545519339 106.71184495386794 63.67101298049634 H 0.0 **** 0.06
13878 H 71.26368439255987 107.38219123327076 64.59356778748351 H 0.0 **** 0.06
13879 H 72.5406971322729 106.46585134264632 65.4311144389809 H 0.0 **** 0.06
13880 H 71.40013550599112 105.62267189050186 64.35510503158024 H 0.0 **** 0.06
13881 C 48.00413072404001 93.52957931099735 86.09648469789204 C 0.0 **** -0.24
13882 H 48.93833876446979 93.16729823379899 86.52443514477108 H 0.0 **** 0.06
13883 H 47.63574900555655 92.80807521281969 85.36654728189359 H 0.0 **** 0.06
13884 H 48.17725866998164 94.48732667448024 85.6054332071962 H 0.0 **** 0.06
13885 H 47.2662981146502 93.6549572068364 86.88896957539595 H 0.0 **** 0.06
13886 C 7.476958179928658 1.6045299667718211 93.94353232358992 C 0.0 **** -0.24
13887 H 7.722660208281184 2.411267343358439 94.63407064435717 H 0.0 **** 0.06
13888 H 8.275493989379697 1.4986888173855135 93.20886227308497 H 0.0 **** 0.06
13889 H 6.541874979976797 1.8354534059527907 93.43297024245533 H 0.0 **** 0.06
13890 H 7.366819421198784 0.6728845214485943 94.49819173533456 H 0.0 **** 0.06
13891 C 162.30703232011768 152.45706069364635 92.11733628969293 C 0.0 **** -0.24
13892 H 162.30132358515635 152.66482852583238 93.18728245217986 H 0.0 **** 0.06
13893 H 161.94817574391482 153.33115426893792 91.57541453629239 H 0.0 **** 0.06
13894 H 161.65711237432157 151.60727979294825 91.90945572355628 H 0.0 **** 0.06
13895 H 163.32339456958422 152.22306934627176 91.79854369023411 H 0.0 **** 0.06
13896 C 139.95366110076927 98.2737951383589 31.751279410363594 C 0.0 **** -0.24
13897 H 138.92199304619012 97.96944185337813 31.927404239958435 H 0.0 **** 0.06
13898 H 140.0027595183205 99.3593094740234 31.670831900392898 H 0.0 **** 0.06
13899 H 140.31128416811362 97.82322347648116 30.824149512856337 H 0.0 **** 0.06
13900 H 140.57736074941954 97.94076515365552 32.58061325235852 H 0.0 **** 0.06
13901 C 3.8880375281482245 125.40506825844164 61.05535824091362 C 0.0 **** -0.24
13902 H 3.194113027693845 124.69793543473884 61.509351413123184 H 0.0 **** 0.06
13903 H 4.2668009967608285 124.99215091076633 60.120368210617386 H 0.0 **** 0.06
13904 H 4.719831193756747 125.58470230348365 61.73676764403287 H 0.0 **** 0.06
13905 H 3.3716981408230566 126.3441115364408 60.8563702711472 H 0.0 **** 0.06
13906 C 120.16067906864649 110.49762557752916 58.224895268211526 C 0.0 **** -0.24
13907 H 121.20768322258664 110.36811522435383 57.949019832535726 H 0.0 **** 0.06
13908 H 119.52502421519509 110.07897585285505 57.44503300258691 H 0.0 **** 0.06
13909 H 119.94495049807537 111.56075929564307 58.33882852752208 H 0.0 **** 0.06
13910 H 119.96734082383975 109.98533898871776 59.16795288166884 H 0.0 **** 0.06
13911 C 155.4286403415669 101.8557209762547 41.357097857098736 C 0.0 **** -0.24
13912 H 155.0435997192427 101.14318708704309 40.627324574016285 H 0.0 **** 0.06
13913 H 155.24441296089628 102.8707268348711 41.006989024917175 H 0.0 **** 0.06
13914 H 156.5011026019368 101.70260778412057 41.48232542020516 H 0.0 **** 0.06
13915 H 154.92671341101305 101.70374420804671 42.31248744517464 H 0.0 **** 0.06
13916 C 117.7449949221905 130.2444572015159 128.8384344526118 C 0.0 **** -0.24
13917 H 117.36748751277855 131.02818944889322 129.4942856091632 H 0.0 **** 0.06
13918 H 118.62994658512949 130.6050734321986 128.312908637523 H 0.0 **** 0.06
13919 H 116.97699782064885 129.9747397523743 128.11431238425777 H 0.0 **** 0.06
13920 H 118.00755390812049 129.36883930824493 129.43227192648231 H 0.0 **** 0.06
13921 C 88.6516351430393 69.40771768320212 21.11962982038189 C 0.0 **** -0.24
13922 H 87.6088155577703 69.09379168311045 21.07122896417824 H 0.0 **** 0.06
13923 H 89.2941140612757 68.57948958162552 20.818264674185563 H 0.0 **** 0.06
13924 H 88.89494292973944 69.70436081901425 22.139691100553996 H 0.0 **** 0.06
13925 H 88.807011541316 70.2521483302279 20.44829092902078 H 0.0 **** 0.06
13926 C 124.03832379072165 26.399291093427763 148.1126013285077 C 0.0 **** -0.24
13927 H 123.3435081798061 25.62105835725817 148.42947189010832 H 0.0 **** 0.06
13928 H 124.87724411986542 25.94393208532383 147.585773340792 H 0.0 **** 0.06
13929 H 124.40518552767477 26.935797351515383 148.98674394279368 H 0.0 **** 0.06
13930 H 123.52536770443564 27.09449453039982 147.44719158717547 H 0.0 **** 0.06
13931 C 61.12565361785853 21.4352388663606 100.85317533610217 C 0.0 **** -0.24
13932 H 61.71750312327909 22.34976678656008 100.81141757360342 H 0.0 **** 0.06
13933 H 61.58094467167139 20.73900016026625 101.55793103488924 H 0.0 **** 0.06
13934 H 61.089992688261674 20.980187203626713 99.86348137821747 H 0.0 **** 0.06
13935 H 60.11324355848164 21.672362459900647 101.17993384794772 H 0.0 **** 0.06
13936 C 59.718583258144434 79.33647824222017 32.889730181732375 C 0.0 **** -0.24
13937 H 58.74768239826646 79.7812818015937 32.67090107421744 H 0.0 **** 0.06
13938 H 60.24064785595543 79.12778666782971 31.95637268699771 H 0.0 **** 0.06
13939 H 59.57555222664567 78.40831785419988 33.442864223217285 H 0.0 **** 0.06
13940 H 60.307758012379466 80.02929464267301 33.48918355836737 H 0.0 **** 0.06
13941 C 46.29697854120887 121.61716576159421 91.71221042711772 C 0.0 **** -0.24
13942 H 45.50194798370599 122.20142710660562 92.17557955706499 H 0.0 **** 0.06
13943 H 46.47104024354522 121.98078499277125 90.69833789796058 H 0.0 **** 0.06
13944 H 46.00325912499105 120.56881102459363 91.67678360495955 H 0.0 **** 0.06
13945 H 47.21063621066399 121.71945438718302 92.29685777736307 H 0.0 **** 0.06
13946 C 136.21486032833002 70.50805595417985 92.95918080395813 C 0.0 **** -0.24
13947 H 136.4464128762201 71.0627271070892 92.05054548152907 H 0.0 **** 0.06
13948 H 136.8672379109886 69.6380855934501 93.02972083827171 H 0.0 **** 0.06
13949 H 135.17500829300275 70.18231180163454 92.93005431991958 H 0.0 **** 0.06
13950 H 136.37029584854136 71.14995103099702 93.82620753939955 H 0.0 **** 0.06
13951 C 18.133471582951415 66.29391112194737 62.068367902678304 C 0.0 **** -0.24
13952 H 19.206308033820108 66.45061462527799 61.95330340810952 H 0.0 **** 0.06
13953 H 17.870635479921646 65.2980616020736 61.70904516858681 H 0.0 **** 0.06
13954 H 17.593281783084024 67.04376508040134 61.49116442790151 H 0.0 **** 0.06
13955 H 17.864464535351885 66.38276389815381 63.12142881328474 H 0.0 **** 0.06
13956 C 93.31137333117293 8.671499423138542 66.02962835500202 C 0.0 **** -0.24
13957 H 92.7992996925378 7.716568038610525 66.14682685209357 H 0.0 **** 0.06
13958 H 94.33830611673645 8.57896980327454 66.38251525842136 H 0.0 **** 0.06
13959 H 92.79356554703716 9.434218012023635 66.61118257241402 H 0.0 **** 0.06
13960 H 93.31158037013766 8.955194550943794 64.9773665641406 H 0.0 **** 0.06
13961 C 60.54091748581921 73.89565183390073 23.906320411558397 C 0.0 **** -0.24
13962 H 61.41770956460384 74.16215756913675 23.316622876891813 H 0.0 **** 0.06
13963 H 60.586362379508586 72.83734877855042 24.164545662373285 H 0.0 **** 0.06
13964 H 59.63926063926252 74.08945407622815 23.325468044124335 H 0.0 **** 0.06
13965 H 60.52237919814546 74.49231937063144 24.8183829323209 H 0.0 **** 0.06
13966 C 144.1317482959091 123.0188104492886 81.09096187395889 C 0.0 **** -0.24
13967 H 144.9901144142072 122.42065389813746 81.39654524889353 H 0.0 **** 0.06
13968 H 143.21258855640355 122.49914871036242 81.36025518197826 H 0.0 **** 0.06
13969 H 144.16135997441742 123.17129643205061 80.01264698815912 H 0.0 **** 0.06
13970 H 144.1647962568937 123.98455552612563 81.59593232292097 H 0.0 **** 0.06
13971 C 38.54179368311853 13.242349783807782 11.765801600666606 C 0.0 **** -0.24
13972 H 38.87532920715843 14.273344719029751 11.650556926968065 H 0.0 **** 0.06
13973 H 37.82203380787789 13.182056418901794 12.582475528533678 H 0.0 **** 0.06
13974 H 39.39842063188024 12.605420612079513 11.986555672760971 H 0.0 **** 0.06
13975 H 38.070195024027726 12.908254429767311 10.840885984482632 H 0.0 **** 0.06
13976 C 153.445024191637 110.95736427144638 3.2865873852792333 C 0.0 **** -0.24
13977 H 153.17253620767792 109.96741593118873 3.6525948187373842 H 0.0 **** 0.06
13978 H 152.57001086801714 111.6069197805931 3.3089744131730185 H 0.0 **** 0.06
13979 H 153.81336908468032 110.87767089820483 2.263761953000312 H 0.0 **** 0.06
13980 H 154.22508765281978 111.37721354331757 3.9227850622087317 H 0.0 **** 0.06
13981 C 80.02219925460746 124.62962851252439 117.00655336097446 C 0.0 **** -0.24
13982 H 79.80531565692411 125.61160428702334 116.58391640727643 H 0.0 **** 0.06
13983 H 79.1060961821166 124.04093136098982 117.04397866424563 H 0.0 **** 0.06
13984 H 80.42031506115755 124.74841267854151 118.01397430789709 H 0.0 **** 0.06
13985 H 80.75691794569379 124.12106743946117 116.38303438831002 H 0.0 **** 0.06
13986 C 88.4380391986942 67.10262491656857 66.73689762600235 C 0.0 **** -0.24
13987 H 89.2611872121314 67.71578293837102 67.1031890839838 H 0.0 **** 0.06
13988 H 87.94666411547477 67.61198126772126 65.9073848065243 H 0.0 **** 0.06
13989 H 87.71974310968172 66.94100754063693 67.54062108986476 H 0.0 **** 0.06
13990 H 88.82394772696357 66.14214634350888 66.39519252277856 H 0.0 **** 0.06
13991 C 45.226882227743616 137.5927001140706 21.07003556627626 C 0.0 **** -0.24
13992 H 44.37688853912057 137.1807401493912 20.525654646100463 H 0.0 **** 0.06
13993 H 46.1192106820432 137.5347826679422 20.445673175393267 H 0.0 **** 0.06
13994 H 45.384793561193575 137.02144190305174 21.98441891087947 H 0.0 **** 0.06
13995 H 45.026649244766446 138.63403198202977 21.321573909641643 H 0.0 **** 0.06
13996 C 65.09970244985504 94.72161189428215 50.33844564135039 C 0.0 **** -0.24
13997 H 64.02408779209796 94.62766926901463 50.488007495612834 H 0.0 **** 0.06
13998 H 65.49241034323455 93.78857400367741 49.932770033511204 H 0.0 **** 0.06
13999 H 65.5811950447208 94.93495620151998 51.29214260944224 H 0.0 **** 0.06
14000 H 65.29966157637858 95.53434839455872 49.64059138197989 H 0.0 **** 0.06
14001 C 51.10021700139828 10.069835495228716 109.33274327374909 C 0.0 **** -0.24
14002 H 52.032528459512065 9.617506726795568 108.99333214620893 H 0.0 **** 0.06
14003 H 51.30138825243377 11.070381630251461 109.71807361760375 H 0.0 **** 0.06
14004 H 50.66610311175175 9.45673747403248 110.12214417626333 H 0.0 **** 0.06
14005 H 50.4031859610874 10.135010763924214 108.49809261146788 H 0.0 **** 0.06
14006 C 76.85385585490819 21.951404545930245 43.145136558597926 C 0.0 **** -0.24
14007 H 75.7996046440814 21.937517804127623 43.424592186603434 H 0.0 **** 0.06
14008 H 76.94256712296283 21.885905912018927 42.06055456210271 H 0.0 **** 0.06
14009 H 77.36184006653389 21.10356475977511 43.60382225559525 H 0.0 **** 0.06
14010 H 77.30896814914979 22.878764759257365 43.49146972066899 H 0.0 **** 0.06
14011 C 134.30244260584521 87.15577478181476 102.45727948028463 C 0.0 **** -0.24
14012 H 135.08281569504703 87.52949347044976 103.12029157916834 H 0.0 **** 0.06
14013 H 133.62108303806997 87.96847946506375 102.20535469733682 H 0.0 **** 0.06
14014 H 133.75096648265372 86.36117090909258 102.95864819728314 H 0.0 **** 0.06
14015 H 134.75639295182384 86.76575724224469 101.5469541422099 H 0.0 **** 0.06
14016 C 125.12659081033672 38.959511692906574 80.04674896894278 C 0.0 **** -0.24
14017 H 125.48407802304249 39.761362761738496 79.40143153949424 H 0.0 **** 0.06
14018 H 124.20403937868693 39.27126598957352 80.53715899254883 H 0.0 **** 0.06
14019 H 125.88168491406827 38.7353988899016 80.8003026870091 H 0.0 **** 0.06
14020 H 124.93594341121343 38.0689818788494 79.44736587615523 H 0.0 **** 0.06
14021 C 147.62348154547607 142.73990035156888 117.44217435547898 C 0.0 **** -0.24
14022 H 146.82491541702262 142.83063855689065 116.7051122104208 H 0.0 **** 0.06
14023 H 147.92050992181322 143.73319827668138 117.77857772862387 H 0.0 **** 0.06
14024 H 148.47855562205777 142.23694556813152 116.99037056012247 H 0.0 **** 0.06
14025 H 147.2682475893282 142.15798507414405 118.29253386588942 H 0.0 **** 0.06
14026 C 30.394756180124574 55.97993069335166 145.35693561802103 C 0.0 **** -0.24
14027 H 30.13519498900075 57.0205347493461 145.16299481581382 H 0.0 **** 0.06
14028 H 29.58753342835186 55.50270344437473 145.91322911908895 H 0.0 **** 0.06
14029 H 31.313440428477463 55.93812196589988 145.9421493747908 H 0.0 **** 0.06
14030 H 30.54202995707709 55.45894537605483 144.41077569671685 H 0.0 **** 0.06
14031 C 64.97035932937584 127.3106020901856 37.38927921299023 C 0.0 **** -0.24
14032 H 65.63056630618864 128.11706014914157 37.711179905919835 H 0.0 **** 0.06
14033 H 65.55955289390253 126.41239567549695 37.20580708851983 H 0.0 **** 0.06
14034 H 64.45829838307598 127.60482605872588 36.473527785162844 H 0.0 **** 0.06
14035 H 64.2352557029963 127.11079990544187 38.16856515906534 H 0.0 **** 0.06
14036 C 141.226884976548 100.89010186796153 128.6969350048548 C 0.0 **** -0.24
14037 H 141.9304493725736 101.60912273370059 129.1148882895992 H 0.0 **** 0.06
14038 H 140.87317171775044 100.22604049870478 129.48708331651403 H 0.0 **** 0.06
14039 H 141.72236520359144 100.30363138883988 127.92337080582519 H 0.0 **** 0.06
14040 H 140.37921808507 101.42209125418896 128.26296030078498 H 0.0 **** 0.06
14041 C 7.219033538748164 112.4021459941257 53.2307600189576 C 0.0 **** -0.24
14042 H 8.076199854457094 111.88610058062017 53.66252138219579 H 0.0 **** 0.06
14043 H 7.488139172138311 113.43658201979721 53.01429487183236 H 0.0 **** 0.06
14044 H 6.389427142085303 112.38238086696799 53.93730542760153 H 0.0 **** 0.06
14045 H 6.9220000722989 111.90298591605199 52.30766184738741 H 0.0 **** 0.06
14046 C 146.31868280903547 86.01811213663484 136.69148737755114 C 0.0 **** -0.24
14047 H 146.11461359830957 85.67757057784928 135.67654055695178 H 0.0 **** 0.06
14048 H 146.02904767285844 87.064314360798 136.78883851519393 H 0.0 **** 0.06
14049 H 147.3834559502235 85.91399256457078 136.90205364534629 H 0.0 **** 0.06
14050 H 145.74752250812622 85.4152523691215 137.3980140151741 H 0.0 **** 0.06
14051 C 152.5868920486377 81.53422832450322 124.51504501035384 C 0.0 **** -0.24
14052 H 152.89540366801958 80.66049450074631 123.94071091565732 H 0.0 **** 0.06
14053 H 153.14722945735127 81.57047953165247 125.44947783564893 H 0.0 **** 0.06
14054 H 151.52074187888968 81.46886748239454 124.73173286356149 H 0.0 **** 0.06
14055 H 152.78613146987578 82.43743315521726 123.9368049260805 H 0.0 **** 0.06
14056 C 11.368281088272795 62.256549782383786 27.636265890668426 C 0.0 **** -0.24
14057 H 11.848057543358038 63.12241154526728 28.091245868926194 H 0.0 **** 0.06
14058 H 11.148435530763322 61.516924352899295 28.40577482063415 H 0.0 **** 0.06
14059 H 12.035883432356258 61.82033964911075 26.892955930308204 H 0.0 **** 0.06
14060 H 10.441018942284984 62.56711941112327 27.15433094989524 H 0.0 **** 0.06
14061 C 91.80720027761944 13.225235798663931 132.9359977481272 C 0.0 **** -0.24
14062 H 91.02733820918533 13.791830090253313 133.44478740822262 H 0.0 **** 0.06
14063 H 92.46564015661073 12.769935120860225 133.6757673571361 H 0.0 **** 0.06
14064 H 92.38550830922739 13.894263166227518 132.2980729213601 H 0.0 **** 0.06
14065 H 91.35077165174329 12.445998197424103 132.32614899094557 H 0.0 **** 0.06
14066 C 151.49059747221543 20.727802588962277 88.38260539692875 C 0.0 **** -0.24
14067 H 150.66606147236763 20.6352374741368 89.09095065392907 H 0.0 **** 0.06
14068 H 151.1615793450573 21.30092804220604 87.51640096922611 H 0.0 **** 0.06
14069 H 151.8085706250333 19.735286432823898 88.06426345382714 H 0.0 **** 0.06
14070 H 152.32473031231353 21.239429038540095 88.86265292950169 H 0.0 **** 0.06
14071 C 80.86190005064717 67.3621096792932 91.54485173462518 C 0.0 **** -0.24
14072 H 80.67203249499835 66.4482903787868 92.1081726588003 H 0.0 **** 0.06
14073 H 81.53759758586264 68.00431429134213 92.11106015725031 H 0.0 **** 0.06
14074 H 79.92135503811895 67.88494139294158 91.37212383940422 H 0.0 **** 0.06
14075 H 81.31787819425236 67.10900662801588 90.58712961036599 H 0.0 **** 0.06
14076 C 20.874009980101967 88.16136661703656 145.82182055742635 C 0.0 **** -0.24
14077 H 21.661424844300704 87.71776091497347 146.43059937444553 H 0.0 **** 0.06
14078 H 21.211726078358446 88.23143763353914 144.78719077565404 H 0.0 **** 0.06
14079 H 20.642592836238762 89.15840517182345 146.19601444885615 H 0.0 **** 0.06
14080 H 19.981390422480274 87.53778483465749 145.87152912533026 H 0.0 **** 0.06
14081 C 71.38787356734777 32.885682147846836 77.10377364609963 C 0.0 **** -0.24
14082 H 72.10135561203171 32.704247487073474 77.90684690269904 H 0.0 **** 0.06
14083 H 70.88257746872897 31.952983927203377 76.85014048101073 H 0.0 **** 0.06
14084 H 71.9137514696202 33.26318567543535 76.22755943975258 H 0.0 **** 0.06
14085 H 70.65229074807637 33.620437218128416 77.43097198914035 H 0.0 **** 0.06
14086 C 21.731478705332293 66.2008449966031 125.42155628252775 C 0.0 **** -0.24
14087 H 20.74196733890374 66.16688279314708 124.96440016495498 H 0.0 **** 0.06
14088 H 22.46770838766134 66.4923084825178 124.67192519180176 H 0.0 **** 0.06
14089 H 21.98226058521788 65.21659153514851 125.8154235041581 H 0.0 **** 0.06
14090 H 21.730815865359055 66.92834850784739 126.23291627754946 H 0.0 **** 0.06
14091 C 67.70884599132 37.969392267098996 65.60227556396393 C 0.0 **** -0.24
14092 H 67.92065580634613 37.412104291580874 66.51437892887782 H 0.0 **** 0.06
14093 H 67.78249245672606 39.037347764132775 65.80435988008202 H 0.0 **** 0.06
14094 H 66.70161721594081 37.73262297777316 65.25796845655682 H 0.0 **** 0.06
14095 H 68.43017232395493 37.694155603611264 64.83229700456894 H 0.0 **** 0.06
14096 C 113.9926093009517 74.68079400254163 53.75467688202559 C 0.0 **** -0.24
14097 H 113.73186753024027 73.9229053870398 53.01550677232501 H 0.0 **** 0.06
14098 H 113.08423090663621 75.1568714957567 54.12306764102627 H 0.0 **** 0.06
14099 H 114.63528487687512 75.43121029899936 53.29328727416781 H 0.0 **** 0.06
14100 H 114.52037700665488 74.21075899826842 54.58456434546751 H 0.0 **** 0.06
14101 C 160.84040180739882 39.183560301551665 30.171541045577214 C 0.0 **** -0.24
14102 H 161.00393579644498 39.590133123736024 31.169539056028952 H 0.0 **** 0.06
14103 H 161.47782862445942 39.705112157940135 29.457138086480654 H 0.0 **** 0.06
14104 H 159.79512077621828 39.316116949079 29.892474466171166 H 0.0 **** 0.06
14105 H 161.08504930029036 38.12097179895113 30.16851449062051 H 0.0 **** 0.06
14106 C 71.27637957303727 110.4221988467863 25.98763991735595 C 0.0 **** -0.24
14107 H 71.44064200782528 109.36509047106856 25.780537122183006 H 0.0 **** 0.06
14108 H 72.05475861329057 111.01268104173465 25.502280500166506 H 0.0 **** 0.06
14109 H 71.31015689835591 110.59150782900406 27.06409262438254 H 0.0 **** 0.06
14110 H 70.30081965773579 110.72101941528473 25.603697232720265 H 0.0 **** 0.06
14111 C 161.06404474310457 30.21174320584845 57.90577405759298 C 0.0 **** -0.24
14112 H 160.63562403627097 30.406623010865957 56.922239900388846 H 0.0 **** 0.06
14113 H 162.12512939682472 29.986415301395027 57.80032008793545 H 0.0 **** 0.06
14114 H 160.55548807373103 29.36196732228791 58.361020051000764 H 0.0 **** 0.06
14115 H 160.9392993205043 31.09018223560878 58.5369849829176 H 0.0 **** 0.06
14116 C 148.4649577107868 46.186843964678246 132.39915593490355 C 0.0 **** -0.24
14117 H 149.0468665946127 46.87153876243735 131.7827892278733 H 0.0 **** 0.06
14118 H 148.25893129708768 46.652436532479726 133.3631261338355 H 0.0 **** 0.06
14119 H 149.0292203184547 45.26743687013243 132.55209752353346 H 0.0 **** 0.06
14120 H 147.5242920301487 45.95713176425318 131.89800699665918 H 0.0 **** 0.06
14121 C 15.765854360676826 163.03332046277103 159.6177686412458 C 0.0 **** -0.24
14122 H 16.41584382196487 162.63529858044456 160.39669362037898 H 0.0 **** 0.06
14123 H 15.52586858604377 164.0737629133434 159.84122165545477 H 0.0 **** 0.06
14124 H 14.846118511350937 162.4494101958424 159.57818791995533 H 0.0 **** 0.06
14125 H 16.274209176820932 162.97631085718837 158.6558938548352 H 0.0 **** 0.06
14126 C 157.1781153191771 130.53224809187756 73.37740745489927 C 0.0 **** -0.24
14127 H 157.9191418683272 130.83371196311944 72.6366571176746 H 0.0 **** 0.06
14128 H 156.18255553770942 130.80722305673916 73.02677745888079 H 0.0 **** 0.06
14129 H 157.38305493190757 131.0363251752 74.32171031735773 H 0.0 **** 0.06
14130 H 157.22804417704944 129.45412350309846 73.52270463788422 H 0.0 **** 0.06
14131 C 120.57690988264807 134.7492930408298 129.09411079357778 C 0.0 **** -0.24
14132 H 120.02412207534476 133.91576195779652 129.52698654755994 H 0.0 **** 0.06
14133 H 121.15632838966266 135.24354735363306 129.87396252712537 H 0.0 **** 0.06
14134 H 119.87675064761837 135.45959604732673 128.65600179122927 H 0.0 **** 0.06
14135 H 121.24890735282304 134.37703585957786 128.32197039551608 H 0.0 **** 0.06
14136 C 8.373803430640635 149.1296234380635 108.96381694378351 C 0.0 **** -0.24
14137 H 7.800445398473585 148.96071219653882 109.87545855272344 H 0.0 **** 0.06
14138 H 8.805685193573368 150.1310921104991 108.98645658536546 H 0.0 **** 0.06
14139 H 7.717378167119307 149.03553862963417 108.09878990628906 H 0.0 **** 0.06
14140 H 9.172999271422611 148.39090061138913 108.89507480980748 H 0.0 **** 0.06
14141 C 33.52774445792528 160.293348870228 6.20306320434878 C 0.0 **** -0.24
14142 H 32.74462081052809 160.58141550336225 5.501675417942465 H 0.0 **** 0.06
14143 H 34.179160665886286 161.14711468644714 6.390751037062586 H 0.0 **** 0.06
14144 H 34.11203287522386 159.47705889105652 5.778648827108839 H 0.0 **** 0.06
14145 H 33.075056892932594 159.96765010617304 7.1394558204532075 H 0.0 **** 0.06
14146 C 104.28597338372796 30.977079932422875 150.60764229490175 C 0.0 **** -0.24
14147 H 104.46948315758695 31.69060440121504 151.41042235537148 H 0.0 **** 0.06
14148 H 105.23538898393645 30.67507335949032 150.16549763133295 H 0.0 **** 0.06
14149 H 103.66030820175584 31.44142058025878 149.8446765476703 H 0.0 **** 0.06
14150 H 103.77680365749887 30.100817534442427 151.0104093394364 H 0.0 **** 0.06
14151 C 161.70194864216066 85.97178677249849 8.113481387562672 C 0.0 **** -0.24
14152 H 162.00354125227736 86.66980086352889 7.331498568225818 H 0.0 **** 0.06
14153 H 161.77307056690262 84.95148468476117 7.735060705068584 H 0.0 **** 0.06
14154 H 160.67404760376292 86.17966127469141 8.408974995832232 H 0.0 **** 0.06
14155 H 162.35925030453495 86.0866623665597 8.975508060797544 H 0.0 **** 0.06
14156 C 86.44565838245914 48.19839554449544 144.15014803188575 C 0.0 **** -0.24
14157 H 86.60304367348171 47.77987577689265 145.14383254275197 H 0.0 **** 0.06
14158 H 86.52712278866422 49.284922316695656 144.19687080661186 H 0.0 **** 0.06
14159 H 85.45286975101854 47.92315322285458 143.79253051406897 H 0.0 **** 0.06
14160 H 87.19959731667234 47.80563086153893 143.46735826411003 H 0.0 **** 0.06
14161 C 110.80366277496438 148.06642545470595 127.80588164530886 C 0.0 **** -0.24
14162 H 111.26259319210962 147.07770104465584 127.80110958827214 H 0.0 **** 0.06
14163 H 110.88817847705428 148.50038517681753 128.80171591005953 H 0.0 **** 0.06
14164 H 109.75181823812053 147.9795322405884 127.53386603903428 H 0.0 **** 0.06
14165 H 111.31392962272838 148.7058510337314 127.08610980303808 H 0.0 **** 0.06
14166 C 118.64771414185776 68.2087069586817 154.68923526945073 C 0.0 **** -0.24
14167 H 119.11089244173559 67.25386361591819 154.93905105414433 H 0.0 **** 0.06
14168 H 118.65493088188052 68.34204242868368 153.60741392144902 H 0.0 **** 0.06
14169 H 119.20644351715325 69.0178558675614 155.15901007598666 H 0.0 **** 0.06
14170 H 117.61974245495946 68.2191834753395 155.0511085897648 H 0.0 **** 0.06
14171 C 122.13252475602039 42.130327415782546 62.965762905922986 C 0.0 **** -0.24
14172 H 122.38974345230594 43.01717334449157 63.545903174006725 H 0.0 **** 0.06
14173 H 121.34391502165906 41.57850616921965 63.47748339572205 H 0.0 **** 0.06
14174 H 123.0128676366993 41.49671072298929 62.862166921887365 H 0.0 **** 0.06
14175 H 121.78303233429031 42.431587879850724 61.978264534049785 H 0.0 **** 0.06
14176 C 116.38760729505066 57.63576434156316 108.24330466003804 C 0.0 **** -0.24
14177 H 115.96438445177986 58.6008386220973 108.52298113756379 H 0.0 **** 0.06
14178 H 116.69737105823751 57.10049750006347 109.14134012724074 H 0.0 **** 0.06
14179 H 117.25225107310442 57.79218035891232 107.59730461252335 H 0.0 **** 0.06
14180 H 115.63735583652073 57.05130601936173 107.71147663277924 H 0.0 **** 0.06
14181 C 80.5245372831518 65.76297583156864 75.52834805539592 C 0.0 **** -0.24
14182 H 80.57923599309638 65.54679369216448 76.59568221796614 H 0.0 **** 0.06
14183 H 81.47959947037708 66.1667477723832 75.19079461532536 H 0.0 **** 0.06
14184 H 79.73678161273233 66.49320756176233 75.34698533259063 H 0.0 **** 0.06
14185 H 80.30293894629543 64.8459586988298 74.9831218757249 H 0.0 **** 0.06
14186 C 18.92588953341655 106.98274752324932 24.21065976905414 C 0.0 **** -0.24
14187 H 19.503070702027173 106.77412436912357 23.310224810696177 H 0.0 **** 0.06
14188 H 19.23195784935598 107.94462960144116 24.623051494824573 H 0.0 **** 0.06
14189 H 19.103725577461205 106.19792181855672 24.946200267958893 H 0.0 **** 0.06
14190 H 17.86480400482168 107.01431430387592 23.963162502737 H 0.0 **** 0.06
14191 C 124.28029691095722 45.36346055213663 144.00950421758512 C 0.0 **** -0.24
14192 H 123.70046276994131 46.18158230818507 144.4372588543253 H 0.0 **** 0.06
14193 H 124.44197824140878 44.5981502299382 144.76875129193112 H 0.0 **** 0.06
14194 H 125.24205660135198 45.7419372218412 143.66395602981086 H 0.0 **** 0.06
14195 H 123.7358119767523 44.93306425088937 143.1696107679507 H 0.0 **** 0.06
14196 C 15.504592913733802 144.66705276714316 22.82011875033448 C 0.0 **** -0.24
14197 H 15.518074441401296 145.25290963528852 23.738801401094847 H 0.0 **** 0.06
14198 H 14.757902388180497 143.8765288691566 22.905985707619287 H 0.0 **** 0.06
14199 H 16.486849287477327 144.2233912671927 22.656895738088984 H 0.0 **** 0.06
14200 H 15.253927660935176 145.31407385739138 21.979612658614492 H 0.0 **** 0.06
14201 C 129.5275408625317 65.48379385315985 43.098928502552155 C 0.0 **** -0.24
14202 H 129.43955687805962 66.57039543063182 43.11421586967978 H 0.0 **** 0.06
14203 H 128.5319207827869 65.03875597669906 43.08331295628443 H 0.0 **** 0.06
14204 H 130.06188826991095 65.15023039445578 43.98780930833908 H 0.0 **** 0.06
14205 H 130.07631087781095 65.1767571242965 42.208692147139374 H 0.0 **** 0.06
14206 C 109.72630665848692 38.6067986535471 46.444000471400415 C 0.0 **** -0.24
14207 H 109.99678607798052 39.56762979435673 46.87978620193668 H 0.0 **** 0.06
14208 H 109.48419324036087 37.90185619679605 47.23985353998398 H 0.0 **** 0.06
14209 H 110.56274331840552 38.2229906451233 45.86027967399457 H 0.0 **** 0.06
14210 H 108.8592824897166 38.73390499627064 45.79544674456697 H 0.0 **** 0.06
14211 C 25.679489907617793 2.948753421904456 25.28711930271129 C 0.0 **** -0.24
14212 H 25.03581312733605 2.908355727702002 24.407825770880947 H 0.0 **** 0.06
14213 H 26.610999926353642 3.4539137051228863 25.031212996179363 H 0.0 **** 0.06
14214 H 25.89535486518875 1.935682732275211 25.625677918909815 H 0.0 **** 0.06
14215 H 25.17467407431215 3.4970548409086177 26.082101922154408 H 0.0 **** 0.06
14216 C 141.05383696908672 70.07069347230987 125.02356023117486 C 0.0 **** -0.24
14217 H 142.09393703025714 70.31480887889728 125.23564826715923 H 0.0 **** 0.06
14218 H 140.64278695883667 69.48294083405244 125.84452892140416 H 0.0 **** 0.06
14219 H 140.99715529614525 69.49341693420092 124.10011241129033 H 0.0 **** 0.06
14220 H 140.47977516549244 70.9906800906225 124.91188421544294 H 0.0 **** 0.06
14221 C 132.66460484701787 10.472255697850983 128.07184111242668 C 0.0 **** -0.24
14222 H 133.53620380020533 10.193961181508485 127.48013742218936 H 0.0 **** 0.06
14223 H 131.76911477818163 10.043059830682836 127.62155417801915 H 0.0 **** 0.06
14224 H 132.57457963540674 11.558104891891958 128.09719532986355 H 0.0 **** 0.06
14225 H 132.77847009051243 10.092263176038188 129.0869515678678 H 0.0 **** 0.06
14226 C 78.01972697359827 46.41036666563869 142.94806137600082 C 0.0 **** -0.24
14227 H 77.87181865713264 47.13619545698482 142.14873319732436 H 0.0 **** 0.06
14228 H 77.11791284654713 45.80881844759497 143.0637069103695 H 0.0 **** 0.06
14229 H 78.2289581228618 46.934574926572026 143.88068878778557 H 0.0 **** 0.06
14230 H 78.86023346700067 45.76287756937427 142.69913458502614 H 0.0 **** 0.06
14231 C 65.55920239956055 130.33523394294247 31.758697013935603 C 0.0 **** -0.24
14232 H 65.44250128844982 131.05954672889646 30.952452820171146 H 0.0 **** 0.06
14233 H 65.82030204678995 129.36289500551027 31.337543944485475 H 0.0 **** 0.06
14234 H 64.62382458851562 130.2527467968381 32.31211012745243 H 0.0 **** 0.06
14235 H 66.3521436772649 130.66436596204204 32.43118354676261 H 0.0 **** 0.06
14236 C 26.802586748067142 4.927767935971048 94.26487664377622 C 0.0 **** -0.24
14237 H 26.429595062618546 4.782160412620044 95.2793807350037 H 0.0 **** 0.06
14238 H 27.468679370006384 4.106176066069736 94.0014790863228 H 0.0 **** 0.06
14239 H 27.3479780035874 5.870108767268789 94.21096004237444 H 0.0 **** 0.06
14240 H 25.9633532302538 4.953004505160493 93.5697622107381 H 0.0 **** 0.06
14241 C 43.4465261698646 96.07582417809418 136.8472060094269 C 0.0 **** -0.24
14242 H 43.44819935720551 97.13555675734355 137.10258400653498 H 0.0 **** 0.06
14243 H 44.4410952553736 95.78087375506081 136.5124845714846 H 0.0 **** 0.06
14244 H 42.72610984576312 95.89617041394801 136.0491905327884 H 0.0 **** 0.06
14245 H 43.169685768797194 95.49167561830251 137.7244606409507 H 0.0 **** 0.06
14246 C 20.85850427471405 105.12245117942928 148.21004905990463 C 0.0 **** -0.24
14247 H 20.070831165293498 104.77408466297433 147.54152178494346 H 0.0 **** 0.06
14248 H 20.432019389087202 105.7958983744928 148.95433758758838 H 0.0 **** 0.06
14249 H 21.6166047210408 105.65202161114527 147.63389309377962 H 0.0 **** 0.06
14250 H 21.3138618223756 104.26765586652076 148.71114322617314 H 0.0 **** 0.06
14251 C 159.60914434202715 8.217616594357402 54.63067024744795 C 0.0 **** -0.24
14252 H 160.20156774334728 8.135457146215913 53.71991991569837 H 0.0 **** 0.06
14253 H 158.89936983720247 7.391671055376115 54.677360462311256 H 0.0 **** 0.06
14254 H 159.0675509354132 9.163540535903024 54.62815338006912 H 0.0 **** 0.06
14255 H 160.2691546162568 8.17921196243865 55.49796916598282 H 0.0 **** 0.06
14256 C 50.65453413862667 30.205611341507336 43.39619628653989 C 0.0 **** -0.24
14257 H 50.4340356757877 31.268093178339115 43.28812842685042 H 0.0 **** 0.06
14258 H 50.704003584134625 29.95198959180408 44.45574792650089 H 0.0 **** 0.06
14259 H 51.61016595993314 29.983506092604216 42.923306364201096 H 0.0 **** 0.06
14260 H 49.86784224562905 29.6217211900929 42.91879812884267 H 0.0 **** 0.06
14261 C 10.825523436451448 142.644634906553 151.83454505621745 C 0.0 **** -0.24
14262 H 11.346754003190881 142.44480454127682 152.77120743023528 H 0.0 **** 0.06
14263 H 11.395609793385233 143.36699533366476 151.24879948929188 H 0.0 **** 0.06
14264 H 9.836603501332092 143.049666459864 152.04904600327797 H 0.0 **** 0.06
14265 H 10.724381353422416 141.71797877571447 151.27074144616972 H 0.0 **** 0.06
14266 C 127.12529361058344 120.83816956908561 2.8122686332530407 C 0.0 **** -0.24
14267 H 126.4429572885019 120.78737964079946 1.9639506659092945 H 0.0 **** 0.06
14268 H 126.92119582864339 120.01048065405917 3.491792748053598 H 0.0 **** 0.06
14269 H 126.98406843733963 121.78297413874517 3.336066874159229 H 0.0 **** 0.06
14270 H 128.15304875852294 120.76987071274323 2.4552399404971936 H 0.0 **** 0.06
14271 C 12.560720257637087 152.26208244277058 14.710748864111792 C 0.0 **** -0.24
14272 H 12.053850076313154 152.05329242823237 13.76946030170376 H 0.0 **** 0.06
14273 H 11.841142141696793 152.21998174077194 15.528878282946891 H 0.0 **** 0.06
14274 H 13.008165920888558 153.25505932782445 14.670275015157586 H 0.0 **** 0.06
14275 H 13.341416795092044 151.51822768709798 14.87432734350648 H 0.0 **** 0.06
14276 C 124.48652061251411 86.83506368262266 121.97616239581598 C 0.0 **** -0.24
14277 H 123.68002294640112 86.71679964451062 122.69946660042842 H 0.0 **** 0.06
14278 H 124.66251124858795 85.88574424910277 121.46974578744894 H 0.0 **** 0.06
14279 H 125.39494952770846 87.14562448176241 122.49250119724323 H 0.0 **** 0.06
14280 H 124.20859872735898 87.59208635511487 121.24293599814345 H 0.0 **** 0.06
14281 C 118.54102939968112 119.88477245354306 54.70749524014809 C 0.0 **** -0.24
14282 H 117.70410182151141 120.58262594198624 54.65498184249367 H 0.0 **** 0.06
14283 H 118.34000614817043 119.02827590056296 54.06342600108074 H 0.0 **** 0.06
14284 H 118.66673151736529 119.5454178812883 55.73518744989752 H 0.0 **** 0.06
14285 H 119.45101737772234 120.38425596642051 54.375088930500254 H 0.0 **** 0.06
14286 C 72.12061712116389 60.89505747742703 62.21128760102012 C 0.0 **** -0.24
14287 H 71.95641749101024 59.83153012611744 62.38660996449852 H 0.0 **** 0.06
14288 H 71.18887659506164 61.437993319663576 62.37421445659308 H 0.0 **** 0.06
14289 H 72.45524352366611 61.04630115431236 61.18430151516057 H 0.0 **** 0.06
14290 H 72.88098617967862 61.26373726894174 62.89921124404323 H 0.0 **** 0.06
14291 C 141.04081605945456 141.45519853327096 100.93399571541909 C 0.0 **** -0.24
14292 H 141.61389355942447 142.09934197702844 100.2680458521852 H 0.0 **** 0.06
14293 H 141.6137505985074 141.2705807961817 101.84273008917 H 0.0 **** 0.06
14294 H 140.83552773268224 140.5077601640023 100.4349905892326 H 0.0 **** 0.06
14295 H 140.09938164213287 141.94257386762285 101.18911804286813 H 0.0 **** 0.06
14296 C 77.31556613519096 128.99378989332266 33.249884504671854 C 0.0 **** -0.24
14297 H 76.55341129343874 128.62055714542313 33.93488246694034 H 0.0 **** 0.06
14298 H 77.5100293413092 128.24602905143922 32.48142134844284 H 0.0 **** 0.06
14299 H 78.2338168540531 129.19452393611135 33.802666872148734 H 0.0 **** 0.06
14300 H 76.96513144419195 129.91331317139827 32.78290027258936 H 0.0 **** 0.06
14301 C 55.940717651160455 149.39149700690493 9.988030372249455 C 0.0 **** -0.24
14302 H 56.07546103330513 150.09850291425732 9.16850870083357 H 0.0 **** 0.06
14303 H 56.59074826653995 149.66993804565016 10.818368066207313 H 0.0 **** 0.06
14304 H 56.196733230399786 148.38867485632298 9.646480074530018 H 0.0 **** 0.06
14305 H 54.901883512282765 149.4092443846316 10.316520093713166 H 0.0 **** 0.06
14306 C 17.80390689332171 62.01855592337084 56.62002370451333 C 0.0 **** -0.24
14307 H 17.83764050651132 61.786006994209586 55.55605854120222 H 0.0 **** 0.06
14308 H 17.245165321090894 62.9425607031244 56.77244716658856 H 0.0 **** 0.06
14309 H 18.818701784139904 62.13966458547536 56.99908686459587 H 0.0 **** 0.06
14310 H 17.312737065183796 61.204696280334915 57.153689842383 H 0.0 **** 0.06
14311 C 104.87751317353593 92.61842555157055 113.15076474312258 C 0.0 **** -0.24
14312 H 104.57169683570277 93.0975423440011 112.22142073683077 H 0.0 **** 0.06
14313 H 105.25109697720598 93.37357910682584 113.8421337450281 H 0.0 **** 0.06
14314 H 105.66470956136834 91.89340286289791 112.94381111130582 H 0.0 **** 0.06
14315 H 104.02254931986624 92.10917789255731 113.59569337932538 H 0.0 **** 0.06
14316 C 159.6976127577282 135.71890653892243 79.53433644340421 C 0.0 **** -0.24
14317 H 160.49513697664912 136.35882123366162 79.15754851688371 H 0.0 **** 0.06
14318 H 159.2579401309099 135.1608135158167 78.70678459574816 H 0.0 **** 0.06
14319 H 158.93098565081533 136.33274211602685 80.00723560857881 H 0.0 **** 0.06
14320 H 160.10662598987096 135.0218623070659 80.26591786667461 H 0.0 **** 0.06
14321 C 131.22402332146532 69.2022470960797 31.58309539990188 C 0.0 **** -0.24
14322 H 131.76963080266506 69.85886896995751 30.905962455513162 H 0.0 **** 0.06
14323 H 131.39758993443797 69.51728308593681 32.61198742948221 H 0.0 **** 0.06
14324 H 131.5733472716313 68.17691135832746 31.453290463007022 H 0.0 **** 0.06
14325 H 130.15871242888738 69.25463710442529 31.360053199212587 H 0.0 **** 0.06
14326 C 102.66407753698948 136.53521016072665 58.63067086597334 C 0.0 **** -0.24
14327 H 103.72416226153672 136.38420128868887 58.43003558717726 H 0.0 **** 0.06
14328 H 102.13477040185998 135.58882356674695 58.519032016929316 H 0.0 **** 0.06
14329 H 102.26027904531225 137.26315366202203 57.9267888431292 H 0.0 **** 0.06
14330 H 102.53613066930293 136.9048889133755 59.648830049225865 H 0.0 **** 0.06
14331 C 152.4729406617447 51.80960150652234 57.42097750162762 C 0.0 **** -0.24
14332 H 153.41142254984243 51.84754533652449 56.86802102706788 H 0.0 **** 0.06
14333 H 151.7211378298699 52.40488506168691 56.90275761833773 H 0.0 **** 0.06
14334 H 152.62641849117136 52.20945698139782 58.42354671398222 H 0.0 **** 0.06
14335 H 152.13452241343717 50.775671247567956 57.49070679068609 H 0.0 **** 0.06
14336 C 88.36510094312831 3.3377530275148004 8.572523242031025 C 0.0 **** -0.24
14337 H 88.59500246200457 3.5683066035854765 9.612382930843012 H 0.0 **** 0.06
14338 H 87.34639821373526 2.9551596367440993 8.501158430772648 H 0.0 **** 0.06
14339 H 89.06368240043321 2.5860376162225194 8.204239706374409 H 0.0 **** 0.06
14340 H 88.45645782947076 4.24350185858421 7.971455951467476 H 0.0 **** 0.06
14341 C 33.26139761923895 7.751289010485806 13.180271110672322 C 0.0 **** -0.24
14342 H 32.411194393689755 7.473906240632061 13.803566494615431 H 0.0 **** 0.06
14343 H 33.9031967272615 8.441074017331744 13.729067456196873 H 0.0 **** 0.06
14344 H 32.90195124727569 8.233419325282824 12.271402303406646 H 0.0 **** 0.06
14345 H 33.82756637953443 6.858149228382132 12.918846026327486 H 0.0 **** 0.06
14346 C 99.89941075157236 12.737816722749017 47.32967489862065 C 0.0 **** -0.24
14347 H 100.32014498819203 13.606925572152875 46.824033361480815 H 0.0 **** 0.06
14348 H 98.95740580055329 13.01386530928687 47.80226951392203 H 0.0 **** 0.06
14349 H 100.59836139330747 12.38681836576825 48.088656453169904 H 0.0 **** 0.06
14350 H 99.72357431030571 11.944904451849482 46.603523057091635 H 0.0 **** 0.06
14351 C 161.605972752436 30.336699762684248 46.030126048010644 C 0.0 **** -0.24
14352 H 161.81907772573135 30.39865284001698 44.963200592896726 H 0.0 **** 0.06
14353 H 160.7372939473362 29.696687608180355 46.188992257285946 H 0.0 **** 0.06
14354 H 161.39882343591086 31.33420575472357 46.41736861525732 H 0.0 **** 0.06
14355 H 162.46691084905825 29.917146052091596 46.549268699674485 H 0.0 **** 0.06
14356 C 99.08397897076762 79.84774343519499 11.026289985375172 C 0.0 **** -0.24
14357 H 99.54084431657432 79.82395934766816 10.037082615579067 H 0.0 **** 0.06
14358 H 98.4831474578447 80.75253356077661 11.127132581853374 H 0.0 **** 0.06
14359 H 99.8643674950493 79.84237467789268 11.78665947200605 H 0.0 **** 0.06
14360 H 98.44696962615342 78.97238913528551 11.152146225901618 H 0.0 **** 0.06
14361 C 154.58120727085256 52.284637867941626 17.417562647030252 C 0.0 **** -0.24
14362 H 155.1163553244999 53.11697524249496 16.96063387030452 H 0.0 **** 0.06
14363 H 153.60404646625423 52.62545248047647 17.760285608693607 H 0.0 **** 0.06
14364 H 155.15323491553858 51.90744938044904 18.26530380801327 H 0.0 **** 0.06
14365 H 154.45142930510522 51.48936546715923 16.683344455783583 H 0.0 **** 0.06
14366 C 85.41115188542155 113.8566321252301 138.6682080085734 C 0.0 **** -0.24
14367 H 86.17315354225386 113.19237579955222 139.0767773247328 H 0.0 **** 0.06
14368 H 85.85816436412696 114.49757284917612 137.90691913366345 H 0.0 **** 0.06
14369 H 84.99912443429349 114.4726232208169 139.46706292895152 H 0.0 **** 0.06
14370 H 84.61505959272263 113.26221535825303 138.22003101210538 H 0.0 **** 0.06
14371 C 18.429053059567032 70.30390527528778 59.58330086408279 C 0.0 **** -0.24
14372 H 17.9902422925245 69.6160434836234 58.860465388229954 H 0.0 **** 0.06
14373 H 18.023206605286653 71.30324325055491 59.4279589668366 H 0.0 **** 0.06
14374 H 19.511074811434405 70.32618082760445 59.45228714681524 H 0.0 **** 0.06
14375 H 18.19248633091769 69.96817874056023 60.593173007093384 H 0.0 **** 0.06
14376 C 53.64970487832822 147.21047405654411 135.20077056306832 C 0.0 **** -0.24
14377 H 52.800085517283705 147.49884272246877 134.58148765324887 H 0.0 **** 0.06
14378 H 53.405886206580846 147.37516097529132 136.25041933143797 H 0.0 **** 0.06
14379 H 54.51773536203274 147.81209234577307 134.92991748504397 H 0.0 **** 0.06
14380 H 53.87441170910719 146.15629598218362 135.04074474565454 H 0.0 **** 0.06
14381 C 149.16604887250554 112.80853600856395 132.03996695454896 C 0.0 **** -0.24
14382 H 148.4328569391527 113.10984497363987 131.29120572460909 H 0.0 **** 0.06
14383 H 148.9698597290881 113.33702327131067 132.97352783950925 H 0.0 **** 0.06
14384 H 150.16742867456003 113.05351369478473 131.68770960013939 H 0.0 **** 0.06
14385 H 149.09215790420296 111.73446991492347 132.20838306801238 H 0.0 **** 0.06
14386 C 21.937720764396147 121.85379652441108 30.097563863194424 C 0.0 **** -0.24
14387 H 22.72215659323959 121.51836276128844 29.418736570149598 H 0.0 **** 0.06
14388 H 21.21888506014949 122.46266020029177 29.547770120950084 H 0.0 **** 0.06
14389 H 22.378233220654437 122.44601859094146 30.899123362398868 H 0.0 **** 0.06
14390 H 21.43030735610293 120.98778730438721 30.52284203786528 H 0.0 **** 0.06
14391 C 111.88449200617782 27.755395043477556 36.97919576971549 C 0.0 **** -0.24
14392 H 112.72775703845264 27.069407742082362 37.06203523309762 H 0.0 **** 0.06
14393 H 110.953713118624 27.205391540210762 37.12049221830921 H 0.0 **** 0.06
14394 H 111.88761860059321 28.21811293101286 35.99256553481888 H 0.0 **** 0.06
14395 H 111.96936187921469 28.528396453144865 37.7429914110254 H 0.0 **** 0.06
14396 C 3.998914526566125 142.7079626361322 160.08372444549136 C 0.0 **** -0.24
14397 H 4.260287691407342 141.8480475561031 160.7002623383325 H 0.0 **** 0.06
14398 H 4.480503320465402 142.61551217774786 159.10935795620694 H 0.0 **** 0.06
14399 H 4.338486244339094 143.62093041363178 160.57252474301563 H 0.0 **** 0.06
14400 H 2.918423443968834 142.7460093221288 159.95280361425833 H 0.0 **** 0.06
14401 C 152.19835563574813 24.24929794243269 140.18680630434204 C 0.0 **** -0.24
14402 H 151.97237954297165 23.999386782382658 139.1499890177295 H 0.0 **** 0.06
14403 H 152.8459920576833 25.125904559747596 140.21629831473393 H 0.0 **** 0.06
14404 H 152.70428057574517 23.407614713366627 140.661264095003 H 0.0 **** 0.06
14405 H 151.27137729733573 24.463491605355557 140.7196412884818 H 0.0 **** 0.06
14406 C 84.07470719584552 15.760373001277493 147.74816999922604 C 0.0 **** -0.24
14407 H 83.74457302000832 16.56773422680297 148.40190781833758 H 0.0 **** 0.06
14408 H 83.20977238010869 15.180661737118342 147.4226204135379 H 0.0 **** 0.06
14409 H 84.76422137635996 15.11250979759484 148.28910373818223 H 0.0 **** 0.06
14410 H 84.57857115733839 16.180689069744474 146.87758836749413 H 0.0 **** 0.06
14411 C 117.9304523877569 81.57480576746434 97.35911143294072 C 0.0 **** -0.24
14412 H 117.66411133035194 81.63262776365231 98.41539925916612 H 0.0 **** 0.06
14413 H 117.04918000410484 81.77589551553156 96.75039249919885 H 0.0 **** 0.06
14414 H 118.30765378187937 80.57638568438516 97.13530496430081 H 0.0 **** 0.06
14415 H 118.7013492007834 82.3122352827825 97.13825484581102 H 0.0 **** 0.06
14416 C 42.88774098102306 150.9406678846825 160.84198937265717 C 0.0 **** -0.24
14417 H 43.60214114197737 151.76236874405598 160.78625804705928 H 0.0 **** 0.06
14418 H 42.30542533028961 150.90362463566652 159.92125154888063 H 0.0 **** 0.06
14419 H 42.219021925553136 151.09698423300418 161.68878858009208 H 0.0 **** 0.06
14420 H 43.42407730791621 150.00084983356837 160.97090102449835 H 0.0 **** 0.06
14421 C 140.46318007630106 76.66157926870854 36.17632586613854 C 0.0 **** -0.24
14422 H 140.4898070060069 77.69054483515177 35.81467024107832 H 0.0 **** 0.06
14423 H 141.17118896831562 76.05892715600208 35.607153918951894 H 0.0 **** 0.06
14424 H 139.4587213527766 76.25902562107139 36.04960152933933 H 0.0 **** 0.06
14425 H 140.73314858207527 76.64120051910962 37.2322816301579 H 0.0 **** 0.06
14426 C 22.729974007392443 130.60516299401837 33.211317248923194 C 0.0 **** -0.24
14427 H 21.972734084057528 129.82252885445567 33.23881843493098 H 0.0 **** 0.06
14428 H 22.99550486831776 130.81683179672336 32.1749936646998 H 0.0 **** 0.06
14429 H 23.615846211297765 130.2739712633797 33.75270741827933 H 0.0 **** 0.06
14430 H 22.33524178245392 131.50888470856586 33.67695275723656 H 0.0 **** 0.06
14431 C 60.980093434517 99.50322162951471 132.38491489800134 C 0.0 **** -0.24
14432 H 61.93420418836551 99.8497898784795 131.9887230845286 H 0.0 **** 0.06
14433 H 61.15840388872711 98.77501979491768 133.1768298928747 H 0.0 **** 0.06
14434 H 60.40304796257429 99.03838557817002 131.58609026355282 H 0.0 **** 0.06
14435 H 60.425371644547525 100.35083774165011 132.78852429741363 H 0.0 **** 0.06
14436 C 130.37920626808443 77.54054154886441 60.363646906451606 C 0.0 **** -0.24
14437 H 131.35897243431117 77.09016429581942 60.523773278459586 H 0.0 **** 0.06
14438 H 130.17109430377585 77.58869252782108 59.29437389372191 H 0.0 **** 0.06
14439 H 130.36937867468055 78.54673801888737 60.78198399646003 H 0.0 **** 0.06
14440 H 129.61739200598203 76.93612010040255 60.8566465187218 H 0.0 **** 0.06
14441 C 90.01272924434592 111.47191044938538 102.14872090998821 C 0.0 **** -0.24
14442 H 90.00379909774342 111.30314795933236 103.22520468064155 H 0.0 **** 0.06
14443 H 89.99926895246728 110.51238581457255 101.63081630336055 H 0.0 **** 0.06
14444 H 90.91390265652477 112.02083353817414 101.87518154488407 H 0.0 **** 0.06
14445 H 89.13385728423776 112.05137339701582 101.86467223573254 H 0.0 **** 0.06
14446 C 84.2005004919367 96.62233123679425 134.72355774332198 C 0.0 **** -0.24
14447 H 83.4474272604765 96.19791792798836 135.38830953054932 H 0.0 **** 0.06
14448 H 84.3003245271984 97.6891943703173 134.9233553198286 H 0.0 **** 0.06
14449 H 83.8956940488625 96.4735011523943 133.68732585989616 H 0.0 **** 0.06
14450 H 85.15699677272944 96.12913523469165 134.8958639116295 H 0.0 **** 0.06
14451 C 31.872940767049585 133.14686996700132 141.0577955871736 C 0.0 **** -0.24
14452 H 31.265891728809436 133.8625073830047 141.61105083449553 H 0.0 **** 0.06
14453 H 32.752889256856406 132.8856800519219 141.6460976824868 H 0.0 **** 0.06
14454 H 32.18622110575413 133.59099082358503 140.11283952633949 H 0.0 **** 0.06
14455 H 31.28774718177965 132.24931137765128 140.86110582755964 H 0.0 **** 0.06
14456 C 128.38190136745806 9.73964280776508 150.63141585839736 C 0.0 **** -0.24
14457 H 128.58579884655674 9.195620054542047 149.70903691002025 H 0.0 **** 0.06
14458 H 129.28491905597588 9.770495536225894 151.24065390959834 H 0.0 **** 0.06
14459 H 127.58811962443193 9.236253224030833 151.18204121594803 H 0.0 **** 0.06
14460 H 128.06941715519056 10.756147847586078 150.39157010035012 H 0.0 **** 0.06
14461 C 38.04241822076892 11.756450933392898 99.89589021634004 C 0.0 **** -0.24
14462 H 38.26442053083582 10.72945079997612 99.60671286214108 H 0.0 **** 0.06
14463 H 37.35993583965222 12.198254969069183 99.17113246823413 H 0.0 **** 0.06
14464 H 38.96698773396764 12.33311212813237 99.924489869279 H 0.0 **** 0.06
14465 H 37.579918735341636 11.76374166392236 100.88344475202797 H 0.0 **** 0.06
14466 C 99.63448103965572 157.23942633182776 0.5672035159786333 C 0.0 **** -0.24
14467 H 98.96674119038738 157.43927312458476 -0.27060887247588994 H 0.0 **** 0.06
14468 H 99.08350387131486 156.7302372541031 1.3577511048875124 H 0.0 **** 0.06
14469 H 100.03135436324828 158.18044632867395 0.9491024682599516 H 0.0 **** 0.06
14470 H 100.45772798647084 156.60792402585895 0.23258258105988716 H 0.0 **** 0.06
14471 C 60.693057763505806 145.2533620017494 67.25868210737349 C 0.0 **** -0.24
14472 H 61.25839890909157 144.7184782918053 66.49507639559567 H 0.0 **** 0.06
14473 H 59.88845102596004 144.61597350813216 67.62652553608245 H 0.0 **** 0.06
14474 H 60.27083253518272 146.1618109009544 66.82868289738282 H 0.0 **** 0.06
14475 H 61.354935262789056 145.51504734640872 68.08391467833536 H 0.0 **** 0.06
14476 C 162.09192809825777 73.67590320888999 35.662824324732426 C 0.0 **** -0.24
14477 H 161.94726057818934 73.96756233836552 36.702680609213004 H 0.0 **** 0.06
14478 H 163.09354238683426 73.96400017428363 35.340919270059686 H 0.0 **** 0.06
14479 H 161.35207734691704 74.17575362290472 35.03819062089411 H 0.0 **** 0.06
14480 H 161.97701782958273 72.59597222535814 35.56844972695312 H 0.0 **** 0.06
14481 C 127.80578262990042 108.19039972735348 77.01554993594922 C 0.0 **** -0.24
14482 H 128.01846129101224 108.94988260938311 76.26178375301906 H 0.0 **** 0.06
14483 H 127.1386254354839 108.60569594084762 77.77042222168211 H 0.0 **** 0.06
14484 H 128.73729777586004 107.87532749948826 77.48564447568752 H 0.0 **** 0.06
14485 H 127.33002742347787 107.33199779510579 76.54108500724386 H 0.0 **** 0.06
14486 C 9.186756345880099 110.70087047891042 155.87256054431043 C 0.0 **** -0.24
14487 H 8.861302283776155 109.69200958680167 156.12623988695918 H 0.0 **** 0.06
14488 H 8.361792605702476 111.3977881315574 156.02398875025364 H 0.0 **** 0.06
14489 H 9.49813049046898 110.72940095833508 154.82784142270785 H 0.0 **** 0.06
14490 H 10.023476761879095 110.98397780002642 156.51029874423566 H 0.0 **** 0.06
14491 C 49.11086656411108 124.35572767003367 65.1537029977498 C 0.0 **** -0.24
14492 H 49.178057138703224 123.32495773431845 64.80588750293049 H 0.0 **** 0.06
14493 H 49.81813140193583 124.97315471769491 64.6001199961928 H 0.0 **** 0.06
14494 H 49.3471204262368 124.39555195949487 66.21737118629409 H 0.0 **** 0.06
14495 H 48.099168123978316 124.7278135482762 64.99315639725472 H 0.0 **** 0.06
14496 C 6.352084958188939 30.706166828830135 125.96162826213435 C 0.0 **** -0.24
14497 H 6.700142965510992 29.835166160104905 126.51768791836409 H 0.0 **** 0.06
14498 H 7.199056043611627 31.182520034156028 125.46653382767434 H 0.0 **** 0.06
14499 H 5.887410431718152 31.413254231127155 126.64851022709456 H 0.0 **** 0.06
14500 H 5.623139952012494 30.392751779884776 125.21353129296713 H 0.0 **** 0.06
14501 C 114.13665096436475 126.41229934471536 66.78597598405804 C 0.0 **** -0.24
14502 H 113.51457614641774 125.94735498012082 66.0216622453446 H 0.0 **** 0.06
14503 H 114.312469870857 127.45667119551803 66.52562037197248 H 0.0 **** 0.06
14504 H 115.09049194988057 125.88677755345671 66.8464666753099 H 0.0 **** 0.06
14505 H 113.63011756516178 126.35751900899896 67.74979541682274 H 0.0 **** 0.06
14506 C 67.4313179373732 98.65479816729209 134.27602107118594 C 0.0 **** -0.24
14507 H 68.50957971117737 98.81191915138584 134.3263942074446 H 0.0 **** 0.06
14508 H 67.20735024670029 97.60606093055182 134.47184891775834 H 0.0 **** 0.06
14509 H 67.07231697582313 98.9244961511244 133.2821160434363 H 0.0 **** 0.06
14510 H 66.93907664755568 99.27759165582862 135.0220161088888 H 0.0 **** 0.06
14511 C 40.78134457992982 76.34639510564296 18.11375048204536 C 0.0 **** -0.24
14512 H 41.43958738068085 76.66589137512837 18.92269760942179 H 0.0 **** 0.06
14513 H 40.88957244895167 75.2727594821165 17.960799107170686 H 0.0 **** 0.06
14514 H 41.04940374081606 76.87286453281764 17.198198703590265 H 0.0 **** 0.06
14515 H 39.74864028613517 76.57533105303125 18.375322662460633 H 0.0 **** 0.06
14516 C 12.379241129603763 43.72760922627165 15.481931970758382 C 0.0 **** -0.24
14517 H 13.142606385549627 44.34523996884427 15.007566456209503 H 0.0 **** 0.06
14518 H 12.172469849562646 42.860390000265255 14.853614094906959 H 0.0 **** 0.06
14519 H 11.466956497681622 44.311632116116925 15.607291052346483 H 0.0 **** 0.06
14520 H 12.735352902135567 43.39509024747011 16.456069710808663 H 0.0 **** 0.06
14521 C 42.63281649769171 12.715729706730485 135.3479374845263 C 0.0 **** -0.24
14522 H 41.76029996460984 13.046406358495375 134.7844752338143 H 0.0 **** 0.06
14523 H 42.32380044829824 12.402209037670332 136.34510383370855 H 0.0 **** 0.06
14524 H 43.34496977383979 13.53645100541695 135.42905526082515 H 0.0 **** 0.06
14525 H 43.10141676272211 11.877490425572034 134.8319921725374 H 0.0 **** 0.06
14526 C 137.2315884315453 104.98295559487133 157.8874047984629 C 0.0 **** -0.24
14527 H 136.35616567091932 105.3387088207088 157.34350636311927 H 0.0 **** 0.06
14528 H 137.81419510823198 104.32358319558978 157.2440896704843 H 0.0 **** 0.06
14529 H 136.91195003360767 104.43640112305576 158.7744715096082 H 0.0 **** 0.06
14530 H 137.84403493176782 105.83436342975915 158.18597785491744 H 0.0 **** 0.06
14531 C 84.8471584029248 53.86636608700624 24.73917266471696 C 0.0 **** -0.24
14532 H 85.30321239547287 52.934230440943395 25.071259581360152 H 0.0 **** 0.06
14533 H 85.61195514645254 54.50938302876449 24.30230650231286 H 0.0 **** 0.06
14534 H 84.39218601717319 54.37160524796917 25.591339540970978 H 0.0 **** 0.06
14535 H 84.08265284092968 53.651868430664734 23.99247938444887 H 0.0 **** 0.06
14536 C 136.36641843842074 21.032484404112864 22.420859593640614 C 0.0 **** -0.24
14537 H 137.10704248535583 20.530388463122165 23.044045416400678 H 0.0 **** 0.06
14538 H 135.81948297046844 21.75871433402051 23.021782654664378 H 0.0 **** 0.06
14539 H 135.67187661870088 20.29585450062629 22.017918059573276 H 0.0 **** 0.06
14540 H 136.87013814312266 21.544494361334955 21.600432177309273 H 0.0 **** 0.06
14541 C 25.66797031066492 162.6244938709525 148.7127803489933 C 0.0 **** -0.24
14542 H 25.984335371044757 163.05471602835132 149.66375455624032 H 0.0 **** 0.06
14543 H 25.38850268529152 161.5820947992261 148.86210832420602 H 0.0 **** 0.06
14544 H 26.488318999431392 162.68230084023236 147.99754176478538 H 0.0 **** 0.06
14545 H 24.812091518247286 163.18018326080306 148.3302445506105 H 0.0 **** 0.06
14546 C 31.053107488243995 116.2092299659395 47.71569414647239 C 0.0 **** -0.24
14547 H 30.235788991978154 116.54922532824892 47.078997584570345 H 0.0 **** 0.06
14548 H 31.960531763986722 116.11420085383159 47.120441706331064 H 0.0 **** 0.06
14549 H 30.797901927757636 115.24119901705274 48.14781228435058 H 0.0 **** 0.06
14550 H 31.216012100364026 116.93248000889938 48.51445400077456 H 0.0 **** 0.06
14551 C 20.230432647323596 80.84798690057256 83.49669882242432 C 0.0 **** -0.24
14552 H 20.43085974526022 80.73798902131273 84.56268912072892 H 0.0 **** 0.06
14553 H 19.298497376803965 80.34008745253465 83.24886288539392 H 0.0 **** 0.06
14554 H 21.047285859347852 80.40878077987465 82.92570091372352 H 0.0 **** 0.06
14555 H 20.143243353213677 81.90680145924654 83.25170365579771 H 0.0 **** 0.06
14556 C 84.00127762229006 75.96538787332561 83.48258548650517 C 0.0 **** -0.24
14557 H 84.66718814893905 75.22765312703451 83.03563643915864 H 0.0 **** 0.06
14558 H 83.05433610919991 75.49101058934681 83.7410808108538 H 0.0 **** 0.06
14559 H 83.82290840453172 76.77155641147357 82.77066865172398 H 0.0 **** 0.06
14560 H 84.46231148560976 76.37137238693047 84.38353012237853 H 0.0 **** 0.06
14561 C 79.3473992269108 114.6812670069441 2.3030940191755107 C 0.0 **** -0.24
14562 H 78.9437285225209 114.31496627656907 3.2475137468410296 H 0.0 **** 0.06
14563 H 79.18316325804103 113.93568175773294 1.5249044220405423 H 0.0 **** 0.06
14564 H 80.41718838974256 114.86353675920503 2.41209761630774 H 0.0 **** 0.06
14565 H 78.84631024764435 115.61003702363507 2.0297719452096956 H 0.0 **** 0.06
14566 C 134.1382271808428 16.44734055077822 160.1653172456912 C 0.0 **** -0.24
14567 H 134.12492958957188 15.576020807708574 159.51023103174322 H 0.0 **** 0.06
14568 H 133.47288169491281 17.211720897067266 159.76428867199576 H 0.0 **** 0.06
14569 H 135.15314735532053 16.84171936154496 160.2227217126429 H 0.0 **** 0.06
14570 H 133.80337038917966 16.1582123685954 161.16100577610888 H 0.0 **** 0.06
14571 C 142.38259552271387 36.206086710045895 51.649312642432534 C 0.0 **** -0.24
14572 H 142.4718308499256 35.78246802113574 52.64902764220754 H 0.0 **** 0.06
14573 H 141.33890646494328 36.17899479483091 51.33536352347417 H 0.0 **** 0.06
14574 H 142.9868697772336 35.62378859832688 50.95271919477052 H 0.0 **** 0.06
14575 H 142.73276961038428 37.238178868401576 51.65974030489417 H 0.0 **** 0.06
14576 C 98.8164378123949 144.08657746368277 27.25990057495457 C 0.0 **** -0.24
14577 H 98.40073172606662 143.87269244213138 26.275224737665383 H 0.0 **** 0.06
14578 H 98.07526597628214 144.6152406234096 27.859460775904665 H 0.0 **** 0.06
14579 H 99.70592699429403 144.70729710759753 27.15097866593277 H 0.0 **** 0.06
14580 H 99.08413414919852 143.15172313049737 27.752716883890116 H 0.0 **** 0.06
14581 C 84.7117254639947 92.14796202734364 101.18325292555306 C 0.0 **** -0.24
14582 H 85.54866285778463 92.00292350345396 101.86548488487693 H 0.0 **** 0.06
14583 H 84.19438224192605 91.19939743235119 101.03513103810684 H 0.0 **** 0.06
14584 H 85.0836763390935 92.51286464172078 100.22510287038256 H 0.0 **** 0.06
14585 H 84.02085595357305 92.87737030071557 101.60528222122593 H 0.0 **** 0.06
14586 C 94.98440647399566 144.64361887741114 115.95365690023752 C 0.0 **** -0.24
14587 H 95.85132199093876 145.2921655775914 116.07975812429518 H 0.0 **** 0.06
14588 H 94.41112828145403 144.61960334253132 116.88048386784934 H 0.0 **** 0.06
14589 H 95.31892508011823 143.6356218092003 115.70621983500715 H 0.0 **** 0.06
14590 H 94.35840674670295 145.02732962610946 115.14870520782165 H 0.0 **** 0.06
14591 C 35.02968784761882 87.5127892054405 126.97501025910972 C 0.0 **** -0.24
14592 H 35.625537572412085 88.22760073023406 126.40712430488739 H 0.0 **** 0.06
14593 H 35.39898680411643 87.46474695637734 127.9996112013568 H 0.0 **** 0.06
14594 H 35.10828440572891 86.5281687367915 126.51335347080192 H 0.0 **** 0.06
14595 H 33.987226316033116 87.83068531496393 126.97743207562621 H 0.0 **** 0.06
14596 C 37.604653317838086 30.137227049785054 160.5012862220724 C 0.0 **** -0.24
14597 H 37.35828574354639 30.395974938129 161.53044333621062 H 0.0 **** 0.06
14598 H 37.00914195126376 30.747680211590676 159.82086718173133 H 0.0 **** 0.06
14599 H 37.386026650128656 29.083205778356387 160.32872490387365 H 0.0 **** 0.06
14600 H 38.66367676065181 30.322486394197313 160.32349376030356 H 0.0 **** 0.06
14601 C 84.9260875748481 136.55926045857345 60.66713955511224 C 0.0 **** -0.24
14602 H 84.03819005668493 136.001894297922 60.37086303431805 H 0.0 **** 0.06
14603 H 85.81657394755955 136.03835772913976 60.314981594828055 H 0.0 **** 0.06
14604 H 84.9579179969859 136.639649763314 61.754048135565114 H 0.0 **** 0.06
14605 H 84.891072476741 137.55702957855792 60.22994328772913 H 0.0 **** 0.06
14606 C 62.73761771503132 140.97779123522358 137.7096885596396 C 0.0 **** -0.24
14607 H 63.07306589384601 141.87510000510875 137.18917596381806 H 0.0 **** 0.06
14608 H 62.71671707261984 140.14003045993235 137.01159547984255 H 0.0 **** 0.06
14609 H 61.73791971999938 141.14199393072698 138.11092692613923 H 0.0 **** 0.06
14610 H 63.42415839948171 140.7537907641193 138.52605338576402 H 0.0 **** 0.06
14611 C 134.2439217290423 33.46488899669839 60.668799629118396 C 0.0 **** -0.24
14612 H 133.87169275617217 34.48075217646729 60.80242393931216 H 0.0 **** 0.06
14613 H 134.2871071083239 32.964624203926405 61.636344471070274 H 0.0 **** 0.06
14614 H 135.24261096828923 33.49889713252185 60.23245328600581 H 0.0 **** 0.06
14615 H 133.5758625219684 32.91632228864313 60.005160943716234 H 0.0 **** 0.06
14616 C 134.32325597123477 154.65510069070274 117.18054788628788 C 0.0 **** -0.24
14617 H 134.48101129767576 155.18321158877836 116.24062450307176 H 0.0 **** 0.06
14618 H 134.13821554157414 153.5992947522571 116.97806141286955 H 0.0 **** 0.06
14619 H 133.46396927878365 155.08222131802466 117.69779851547614 H 0.0 **** 0.06
14620 H 135.21088335331896 154.75370968463108 117.80585882367981 H 0.0 **** 0.06
14621 C 110.7844946615329 78.28730703851124 21.36771511560113 C 0.0 **** -0.24
14622 H 110.80615393472019 78.61415248933446 20.328034497808858 H 0.0 **** 0.06
14623 H 111.76278308923796 77.8933513748074 21.644995793431036 H 0.0 **** 0.06
14624 H 110.03190569678492 77.50814558018719 21.488019411008906 H 0.0 **** 0.06
14625 H 110.5383486021581 79.13312551013426 22.0092414750321 H 0.0 **** 0.06
14626 C 61.07126371223572 115.42252290461795 129.06101680591271 C 0.0 **** -0.24
14627 H 61.98419062310957 115.66295507056273 129.60706325481144 H 0.0 **** 0.06
14628 H 61.32905693191137 114.93874880501258 128.11853754764905 H 0.0 **** 0.06
14629 H 60.517066810484934 116.33933020628288 128.8589870229819 H 0.0 **** 0.06
14630 H 60.45662040430922 114.75025898401637 129.65932915655793 H 0.0 **** 0.06
14631 C 154.24324050373917 98.0473353631196 135.6568805767834 C 0.0 **** -0.24
14632 H 153.35672201776427 97.41324957541883 135.65830891073279 H 0.0 **** 0.06
14633 H 154.95191395244274 97.68014781418762 134.91387577662363 H 0.0 **** 0.06
14634 H 154.7071287350073 98.02570062728955 136.64282605820807 H 0.0 **** 0.06
14635 H 153.95719730974218 99.0702434355826 135.41251156156912 H 0.0 **** 0.06
14636 C 63.93568213399794 83.67523583939578 24.383423400822124 C 0.0 **** -0.24
14637 H 64.42868042563327 83.63935660449059 23.41205209454563 H 0.0 **** 0.06
14638 H 63.224207797839995 84.50192912175086 24.398569174448767 H 0.0 **** 0.06
14639 H 64.68191240747069 83.8234793115361 25.162970102658733 H 0.0 **** 0.06
14640 H 63.40843905296492 82.73769640522555 24.557375613535186 H 0.0 **** 0.06
14641 C 25.72025358484933 160.24125577065428 151.78821344834904 C 0.0 **** -0.24
14642 H 26.115012707341577 159.45804454405302 151.14077443531986 H 0.0 **** 0.06
14643 H 25.986398042249107 160.02456130404963 152.82263429268872 H 0.0 **** 0.06
14644 H 24.635433321621747 160.27864951034982 151.69189863768406 H 0.0 **** 0.06
14645 H 26.144772863784056 161.20099672600347 151.49656728555044 H 0.0 **** 0.06
14646 C 140.53171632733464 3.53910413101363 161.08737107749565 C 0.0 **** -0.24
14647 H 141.19528144336113 3.458378075435519 161.94785319316136 H 0.0 **** 0.06
14648 H 140.28329129293928 2.540774024408904 160.72498467499415 H 0.0 **** 0.06
14649 H 141.0306187827005 4.0991112526921825 160.29640633703434 H 0.0 **** 0.06
14650 H 139.61905920135203 4.057869244490405 161.38024916708665 H 0.0 **** 0.06
14651 C 55.87027172091996 137.32599409140195 6.159612222222421 C 0.0 **** -0.24
14652 H 55.445559716906544 138.26221378927607 5.8001609929497135 H 0.0 **** 0.06
14653 H 56.768343741870765 137.53441677187584 6.741038473069821 H 0.0 **** 0.06
14654 H 56.125999623892596 136.69261596042955 5.309661479371115 H 0.0 **** 0.06
14655 H 55.141259031845095 136.81374159061815 6.787721081407824 H 0.0 **** 0.06
14656 C 74.28601505119998 14.510961823214444 61.13278348290747 C 0.0 **** -0.24
14657 H 73.43243291199613 14.31290724959021 61.781321672450616 H 0.0 **** 0.06
14658 H 73.97226527721341 15.147342460194523 60.30507119417126 H 0.0 **** 0.06
14659 H 74.66956715978696 13.568026104337804 60.74068410430327 H 0.0 **** 0.06
14660 H 75.06694126683514 15.012733425530797 61.70238272731875 H 0.0 **** 0.06
14661 C 56.80859338089806 40.35939137674474 9.680508530604897 C 0.0 **** -0.24
14662 H 57.56578994147202 40.338578605436254 8.897114610209478 H 0.0 **** 0.06
14663 H 55.88259889214919 39.92489808142395 9.302276227008527 H 0.0 **** 0.06
14664 H 56.628300577086634 41.391268641848356 9.98433860718066 H 0.0 **** 0.06
14665 H 57.15664391561501 39.78368043390823 10.537882765424378 H 0.0 **** 0.06
14666 C 21.998111423871933 162.12474858097374 11.545773707441015 C 0.0 **** -0.24
14667 H 21.71625582273208 163.11425974276207 11.184704514387192 H 0.0 **** 0.06
14668 H 22.171773408262993 162.16765486955265 12.621652169020479 H 0.0 **** 0.06
14669 H 22.908346564403644 161.80039716730775 11.04253423016317 H 0.0 **** 0.06
14670 H 21.194161374607347 161.4198334563094 11.334859436094689 H 0.0 **** 0.06
14671 C 75.93051154858642 151.14507603970486 158.5349131624033 C 0.0 **** -0.24
14672 H 75.65292297077531 150.61748910534948 157.62225634221932 H 0.0 **** 0.06
14673 H 76.1632201226314 152.18214945991969 158.29748689069396 H 0.0 **** 0.06
14674 H 76.8049157085955 150.66728576686685 158.9778959003945 H 0.0 **** 0.06
14675 H 75.10104276406548 151.1096680522119 159.24154438224488 H 0.0 **** 0.06
14676 C 11.630979635391213 7.838515170057633 16.394689644608547 C 0.0 **** -0.24
14677 H 12.531994632257451 7.776316894508341 15.7855762200237 H 0.0 **** 0.06
14678 H 11.251304187198777 6.833870299309808 16.58532055766983 H 0.0 **** 0.06
14679 H 10.874230874163146 8.418514558700394 15.865801283755616 H 0.0 **** 0.06
14680 H 11.865006736695193 8.324401675092815 17.341643951918854 H 0.0 **** 0.06
14681 C 37.022245186315615 100.10894339614376 62.42476582019273 C 0.0 **** -0.24
14682 H 36.95174144071507 100.13725250871644 61.33686614283508 H 0.0 **** 0.06
14683 H 36.88828736033213 99.08447866785906 62.77073135168048 H 0.0 **** 0.06
14684 H 36.24768698593408 100.74270910591773 62.855599254973285 H 0.0 **** 0.06
14685 H 38.002064548947374 100.47306340377199 62.73354970704881 H 0.0 **** 0.06
14686 C 73.85325204193418 98.80180775496183 140.59996778935113 C 0.0 **** -0.24
14687 H 73.29309143644723 99.35086522101221 139.84255384993645 H 0.0 **** 0.06
14688 H 73.36639538189362 98.91878805490708 141.56831383655293 H 0.0 **** 0.06
14689 H 74.86964022964281 99.19203783694738 140.65446913540734 H 0.0 **** 0.06
14690 H 73.88404513125057 97.745426409441 140.33355441269595 H 0.0 **** 0.06
14691 C 132.6330030352213 128.86001975778575 16.0319298455517 C 0.0 **** -0.24
14692 H 131.8411649246267 129.47835432751728 15.609049691694906 H 0.0 **** 0.06
14693 H 132.43896473099178 128.69764490709449 17.092698168409754 H 0.0 **** 0.06
14694 H 133.5915959067722 129.3638540051978 15.910424307122355 H 0.0 **** 0.06
14695 H 132.65807015096976 127.90032874932538 15.515269727000486 H 0.0 **** 0.06
14696 C 131.25925336501646 45.20657159128602 149.41239493187786 C 0.0 **** -0.24
14697 H 131.3320688693215 44.12060389043242 149.3472417723066 H 0.0 **** 0.06
14698 H 132.26016627068208 45.63824532343655 149.4007327593805 H 0.0 **** 0.06
14699 H 130.75476019130227 45.48137635440543 150.33951675803 H 0.0 **** 0.06
14700 H 130.69012646711428 45.5832998170721 148.56325699458773 H 0.0 **** 0.06
14701 C 29.731813706814215 37.10995629512061 37.22304669603986 C 0.0 **** -0.24
14702 H 30.34192430675993 37.26450727718354 38.112342974836224 H 0.0 **** 0.06
14703 H 28.83860623761202 37.73191382742665 37.28246136805946 H 0.0 **** 0.06
14704 H 29.441442770367452 36.06158835824701 37.15987848931904 H 0.0 **** 0.06
14705 H 30.305281512517475 37.38181571762523 36.337503951944925 H 0.0 **** 0.06
14706 C 20.36979040417485 129.81023595852486 114.93282937320694 C 0.0 **** -0.24
14707 H 19.876394608158705 129.08812749183107 115.583694811599 H 0.0 **** 0.06
14708 H 20.55299871633708 130.73140661739052 115.48532205675608 H 0.0 **** 0.06
14709 H 19.732619792230416 130.02111779950556 114.0739886922889 H 0.0 **** 0.06
14710 H 21.319151515758364 129.39889185285514 114.58814488191564 H 0.0 **** 0.06
14711 C 111.99458432963618 97.28682897293493 23.48150859060729 C 0.0 **** -0.24
14712 H 112.23144064735914 96.54468422870752 22.719326781467174 H 0.0 **** 0.06
14713 H 111.51682463540257 98.14766645334214 23.013227289137063 H 0.0 **** 0.06
14714 H 112.91314068828828 97.60448902771094 23.975667658075963 H 0.0 **** 0.06
14715 H 111.31811481764669 96.84986250233555 24.216017377055692 H 0.0 **** 0.06
14716 C 90.30260113754849 17.0107874517891 10.305353712448337 C 0.0 **** -0.24
14717 H 90.65473839073846 16.265937481279593 11.019370342464356 H 0.0 **** 0.06
14718 H 89.58810401439814 17.6733229837954 10.794519742628673 H 0.0 **** 0.06
14719 H 89.81780901194657 16.509059760976214 9.467253594780182 H 0.0 **** 0.06
14720 H 91.14817865101804 17.59297656896257 9.940567030054936 H 0.0 **** 0.06
14721 C 28.62566580088688 62.54910139632568 142.9088433082237 C 0.0 **** -0.24
14722 H 29.432110839487677 61.98832910291242 142.4364687892471 H 0.0 **** 0.06
14723 H 29.048753451848995 63.33952289434956 143.53036371011356 H 0.0 **** 0.06
14724 H 28.031427560405348 61.877955022146296 143.52932080770617 H 0.0 **** 0.06
14725 H 27.991676774233895 62.990589282985184 142.13976384353415 H 0.0 **** 0.06
14726 C 128.42135369841617 86.56888564024254 139.91194614355453 C 0.0 **** -0.24
14727 H 127.45828529298973 86.49021763587815 139.4073468433827 H 0.0 **** 0.06
14728 H 129.2058472819829 86.73416692743632 139.17355751604237 H 0.0 **** 0.06
14729 H 128.622723112657 85.6460454414137 140.456014324124 H 0.0 **** 0.06
14730 H 128.396940669268 87.40557863173 140.6104615064325 H 0.0 **** 0.06
14731 C 29.85961578395228 70.75603678814429 35.8336142879956 C 0.0 **** -0.24
14732 H 29.25828855085075 70.93792508582246 36.724431365599116 H 0.0 **** 0.06
14733 H 29.20439653453832 70.516497566706 34.997084848391296 H 0.0 **** 0.06
14734 H 30.536846682954376 69.92089481157268 36.01666643869248 H 0.0 **** 0.06
14735 H 30.439738107541586 71.64818667006625 35.598496183088 H 0.0 **** 0.06
14736 C 136.25012638952896 79.5970782362918 96.55671546978033 C 0.0 **** -0.24
14737 H 137.04316917490524 80.29671520499573 96.2927948239294 H 0.0 **** 0.06
14738 H 135.76842841509537 79.23492128972498 95.64903147600046 H 0.0 **** 0.06
14739 H 135.51509592602952 80.10161919708617 97.18242182209673 H 0.0 **** 0.06
14740 H 136.67632288145802 78.75592290445712 97.10358667809055 H 0.0 **** 0.06
14741 C 63.78614716318195 52.2529063871514 7.858675638823797 C 0.0 **** -0.24
14742 H 63.7049350657649 51.39653709722987 7.189063738008031 H 0.0 **** 0.06
14743 H 63.55486826136196 51.94002270942815 8.877457640005446 H 0.0 **** 0.06
14744 H 63.08221146932293 53.02517172465424 7.546037364804192 H 0.0 **** 0.06
14745 H 64.80082253706806 52.64917670555235 7.8200417691070925 H 0.0 **** 0.06
14746 C 50.99603368098036 19.217198026739297 58.6151585039745 C 0.0 **** -0.24
14747 H 51.637703694954425 19.58362542831634 57.81420445324147 H 0.0 **** 0.06
14748 H 50.018458582560186 19.694041700905956 58.54394829884973 H 0.0 **** 0.06
14749 H 51.446920900959284 19.453107115269475 59.57852626363484 H 0.0 **** 0.06
14750 H 50.88159129960499 18.136993952874676 58.5231423902045 H 0.0 **** 0.06
14751 C 33.43794178572767 9.291290470486956 58.01170791049303 C 0.0 **** -0.24
14752 H 33.59662123054068 10.362659838428556 57.882242017073565 H 0.0 **** 0.06
14753 H 33.982262931900095 8.948679975675702 58.89194049673942 H 0.0 **** 0.06
14754 H 33.80054358537603 8.760899016778126 57.131037878721045 H 0.0 **** 0.06
14755 H 32.37377495672834 9.095347261146173 58.14304744931245 H 0.0 **** 0.06
14756 C 85.91955393005875 4.858180799991814 4.291921952581404 C 0.0 **** -0.24
14757 H 85.84229552232267 5.681778318780417 5.001661424966478 H 0.0 **** 0.06
14758 H 85.29418462299915 4.030518953159408 4.6278385770687365 H 0.0 **** 0.06
14759 H 86.9565108308757 4.5286374158239155 4.2288633112773795 H 0.0 **** 0.06
14760 H 85.58440156222258 5.192854158875676 3.309756734482157 H 0.0 **** 0.06
14761 C 60.92021720192844 133.51950601754078 54.33567263442603 C 0.0 **** -0.24
14762 H 61.79052127507782 132.8811408091224 54.18465433720968 H 0.0 **** 0.06
14763 H 60.06195408898503 133.092222533101 53.81621220602983 H 0.0 **** 0.06
14764 H 61.12628979448823 134.51428341377047 53.94063102324503 H 0.0 **** 0.06
14765 H 60.702103649162666 133.59037731416922 55.40119297121964 H 0.0 **** 0.06
14766 C 13.937210847749782 34.36021541263692 87.62202894130024 C 0.0 **** -0.24
14767 H 13.513103109059642 34.59752899158194 86.64722655285601 H 0.0 **** 0.06
14768 H 14.070144765478233 35.27868847636945 88.19411081821241 H 0.0 **** 0.06
14769 H 14.90123973818612 33.87038414672571 87.48976237194503 H 0.0 **** 0.06
14770 H 13.262036533590276 33.693088064576784 88.15851530835045 H 0.0 **** 0.06
14771 C 74.20356023835302 159.97822095563293 149.13064547611754 C 0.0 **** -0.24
14772 H 74.0075402502927 160.4393581453488 148.16272062993767 H 0.0 **** 0.06
14773 H 75.27745181798453 159.83732865122346 149.25447640719403 H 0.0 **** 0.06
14774 H 73.70222116982845 159.01172458057465 149.18084256234113 H 0.0 **** 0.06
14775 H 73.82784826069802 160.62387257267395 149.9231398255746 H 0.0 **** 0.06
14776 C 61.579395670697195 131.9621888647287 103.95884929207924 C 0.0 **** -0.24
14777 H 61.86672244968423 132.00303406778417 102.9080396722427 H 0.0 **** 0.06
14778 H 62.4728860987491 131.87174353063781 104.5766561835147 H 0.0 **** 0.06
14779 H 60.93343327989359 131.10053686303837 104.12459984524116 H 0.0 **** 0.06
14780 H 61.04449899418165 132.87473185034003 104.2233936604261 H 0.0 **** 0.06
14781 C 2.274426436421926 127.00341958769104 161.04838905101587 C 0.0 **** -0.24
14782 H 2.9907379573033666 126.21220217585372 160.82735813794181 H 0.0 **** 0.06
14783 H 2.789472733996334 127.83311070085239 161.53364450447276 H 0.0 **** 0.06
14784 H 1.5010614433034135 126.61678772405878 161.71179181905006 H 0.0 **** 0.06
14785 H 1.8178806142891588 127.35000893884356 160.12196390496868 H 0.0 **** 0.06
14786 C 46.856844630620145 70.94255671681462 75.38587756452546 C 0.0 **** -0.24
14787 H 46.25791474399867 70.17276912553679 75.8713452533884 H 0.0 **** 0.06
14788 H 46.855156215454016 70.77791729273514 74.30812393679253 H 0.0 **** 0.06
14789 H 47.8808075562315 70.89507880579593 75.75916122474291 H 0.0 **** 0.06
14790 H 46.435298985058694 71.9232156046413 75.6059804094981 H 0.0 **** 0.06
14791 C 85.20331853590304 29.674879787656096 155.23098837546246 C 0.0 **** -0.24
14792 H 86.24604169117644 29.964483262421936 155.10179434835808 H 0.0 **** 0.06
14793 H 85.15511724168968 28.662648979462062 155.6323750722857 H 0.0 **** 0.06
14794 H 84.69450847888517 29.709873213477124 154.26759352071716 H 0.0 **** 0.06
14795 H 84.71857976913859 30.364343511337836 155.9230302762082 H 0.0 **** 0.06
14796 C 85.62679605320696 73.15357333749037 147.76831236072687 C 0.0 **** -0.24
14797 H 86.24811115502206 74.04865130149344 147.7969451381963 H 0.0 **** 0.06
14798 H 84.6525912199132 73.40086496960612 147.3451236510008 H 0.0 **** 0.06
14799 H 85.49738697419785 72.76878119425352 148.7799793801082 H 0.0 **** 0.06
14800 H 86.10979495453054 72.39627283100046 147.15054309148636 H 0.0 **** 0.06
14801 C 156.185862718486 111.62304662799897 39.0220364767311 C 0.0 **** -0.24
14802 H 155.78402857251228 111.21719114115581 38.09308247878272 H 0.0 **** 0.06
14803 H 155.9493929017783 112.68562193781455 39.08629862107934 H 0.0 **** 0.06
14804 H 157.26721769158598 111.4893939525582 39.03904299474799 H 0.0 **** 0.06
14805 H 155.741251067811 111.09959059674136 39.868168325159914 H 0.0 **** 0.06
14806 C 112.33296780375105 70.25843947992671 38.742856148912665 C 0.0 **** -0.24
14807 H 113.20726420776646 69.70230655722776 39.08121812679411 H 0.0 **** 0.06
14808 H 111.43828269162998 69.65373402153645 38.8929452270952 H 0.0 **** 0.06
14809 H 112.43940821181525 70.49408599975376 37.68425424315984 H 0.0 **** 0.06
14810 H 112.24766708699337 71.18304274669785 39.31445256814254 H 0.0 **** 0.06
14811 C 131.92372256101726 105.34693643191366 90.37792767631204 C 0.0 **** -0.24
14812 H 131.42088202702158 104.70156390270745 89.65810857857625 H 0.0 **** 0.06
14813 H 131.47463814004578 106.34004775516343 90.35046940889589 H 0.0 **** 0.06
14814 H 132.98119199214227 105.41867378670068 90.12241637064248 H 0.0 **** 0.06
14815 H 131.8192802566916 104.9269375510199 91.37816444394511 H 0.0 **** 0.06
14816 C 149.68878955085165 114.29503487361075 161.9579992070866 C 0.0 **** -0.24
14817 H 150.4419918964188 113.75920922982792 161.38078265595058 H 0.0 **** 0.06
14818 H 149.06254783596384 114.87999216172895 161.2835904481916 H 0.0 **** 0.06
14819 H 150.18074557263895 114.9610175818456 162.6672975770536 H 0.0 **** 0.06
14820 H 149.07013051921487 113.57907808301539 162.49921980631612 H 0.0 **** 0.06
14821 C 74.30502231409355 26.783546963011446 33.35849547842227 C 0.0 **** -0.24
14822 H 73.47817256237516 26.20412043027622 32.94802960775027 H 0.0 **** 0.06
14823 H 73.91276921547922 27.56107619416059 34.014056047253774 H 0.0 **** 0.06
14824 H 74.86564600312346 27.242666377448643 32.54403166172206 H 0.0 **** 0.06
14825 H 74.9625627840615 26.125032973356667 33.92719377400424 H 0.0 **** 0.06
14826 C 97.58849999903049 137.62364677052858 9.001477738143585 C 0.0 **** -0.24
14827 H 98.08466097379653 138.21777882953072 9.768464191357339 H 0.0 **** 0.06
14828 H 97.26006988284178 138.27616626998952 8.191840875450183 H 0.0 **** 0.06
14829 H 96.72441201298943 137.11960368931938 9.435015968861158 H 0.0 **** 0.06
14830 H 98.28314975921182 136.88091484366333 8.61032581901398 H 0.0 **** 0.06
14831 C 90.43584011416749 112.41272294315462 18.135804288480216 C 0.0 **** -0.24
14832 H 90.80889740968564 112.94876518040556 19.008059301137052 H 0.0 **** 0.06
14833 H 89.54711783624327 111.84382871858764 18.41137817933196 H 0.0 **** 0.06
14834 H 91.2060062995364 111.73100783397268 17.772791258345336 H 0.0 **** 0.06
14835 H 90.18349754516123 113.12522470377593 17.351262201113236 H 0.0 **** 0.06
14836 C 22.076279617702312 14.256123556209872 47.412716394447244 C 0.0 **** -0.24
14837 H 22.609945563884025 14.307865147181872 46.46383425526267 H 0.0 **** 0.06
14838 H 21.04744631655737 13.940990215637328 47.23401574677628 H 0.0 **** 0.06
14839 H 22.078578281660725 15.238247220690738 47.88523906279619 H 0.0 **** 0.06
14840 H 22.567928776311362 13.53610039368587 48.066089621926366 H 0.0 **** 0.06
14841 C 66.9262253121309 31.435612469794023 145.81202601547307 C 0.0 **** -0.24
14842 H 66.59228353686007 31.71351032752864 146.81204878924245 H 0.0 **** 0.06
14843 H 67.94442130797034 31.050834720310945 145.86318099655864 H 0.0 **** 0.06
14844 H 66.90030595013818 32.31194961187225 145.16430905705738 H 0.0 **** 0.06
14845 H 66.26623368822163 30.66752215739791 145.40918711952077 H 0.0 **** 0.06
14846 C 31.763136145717922 127.17026611963044 132.21973678610019 C 0.0 **** -0.24
14847 H 31.57677663387438 126.29841143239457 131.5935743810331 H 0.0 **** 0.06
14848 H 32.18195655614537 126.8497518959017 133.17413553909066 H 0.0 **** 0.06
14849 H 30.82663126546997 127.70017000268075 132.39281864734906 H 0.0 **** 0.06
14850 H 32.467267826518096 127.83371232920422 131.71824646768178 H 0.0 **** 0.06
14851 C 27.376394377915155 131.66580748115985 57.00887470058635 C 0.0 **** -0.24
14852 H 27.473439032773847 131.9535805586454 58.05539743172341 H 0.0 **** 0.06
14853 H 26.737642004016777 130.78541563323202 56.932405882166734 H 0.0 **** 0.06
14854 H 28.361958909234488 131.43658928895007 56.60204369176921 H 0.0 **** 0.06
14855 H 26.93352597148882 132.4876880611826 56.446662346909676 H 0.0 **** 0.06
14856 C 141.3610343698773 122.24185687200588 100.2312713964069 C 0.0 **** -0.24
14857 H 141.70303759791722 121.28623003861662 99.83343724245637 H 0.0 **** 0.06
14858 H 141.07520738717147 122.11909196670834 101.27533869880943 H 0.0 **** 0.06
14859 H 140.50182506300337 122.58636496878944 99.65621106947316 H 0.0 **** 0.06
14860 H 142.16511302566408 122.97472017939285 100.1566538582577 H 0.0 **** 0.06
14861 C 125.02722635488482 70.02774835149874 79.7523418702058 C 0.0 **** -0.24
14862 H 124.08929006364627 69.53999430779237 80.01898841761644 H 0.0 **** 0.06
14863 H 125.08062432289708 70.14474671432401 78.66953906121071 H 0.0 **** 0.06
14864 H 125.86373378270503 69.41813392578604 80.0936956820711 H 0.0 **** 0.06
14865 H 125.07444824627919 71.00753853655341 80.22704822779367 H 0.0 **** 0.06
14866 C 145.49263904832594 62.84432044511577 149.886894661231 C 0.0 **** -0.24
14867 H 145.8463385879243 62.93236377452661 150.9143487362425 H 0.0 **** 0.06
14868 H 145.19291577121854 61.81329645627574 149.6939506098843 H 0.0 **** 0.06
14869 H 146.29280669132476 63.124577059618304 149.2021977833809 H 0.0 **** 0.06
14870 H 144.63970147108145 63.505041847857555 149.73867350721432 H 0.0 **** 0.06
14871 C 152.01971994830666 160.3762639929701 105.58740236981413 C 0.0 **** -0.24
14872 H 151.29082834165138 159.9220926445045 106.25913765132842 H 0.0 **** 0.06
14873 H 152.53700095292635 161.184107372972 106.10584939505631 H 0.0 **** 0.06
14874 H 151.50734620400624 160.77517145245162 104.71141214822842 H 0.0 **** 0.06
14875 H 152.7422647948619 159.62322030389743 105.27405435282034 H 0.0 **** 0.06
14876 C 73.51991423106874 6.476868217572019 151.5265463482396 C 0.0 **** -0.24
14877 H 74.4605766105281 7.025090008311622 151.4788703714005 H 0.0 **** 0.06
14878 H 73.59803122829538 5.567783674614759 150.92951041031952 H 0.0 **** 0.06
14879 H 72.71572197013842 7.100670581830627 151.13567003799614 H 0.0 **** 0.06
14880 H 73.30453173729319 6.214261179533025 152.56264132615865 H 0.0 **** 0.06
14881 C 7.403147486733303 96.89924501918244 90.5552128064333 C 0.0 **** -0.24
14882 H 6.714243243148729 96.1956940122977 91.02152466251772 H 0.0 **** 0.06
14883 H 8.083533566039733 96.35863797735814 89.89661984398904 H 0.0 **** 0.06
14884 H 7.975655658627431 97.41260481271354 91.32802648693263 H 0.0 **** 0.06
14885 H 6.839157479117205 97.63004327436065 89.97468023229396 H 0.0 **** 0.06
14886 C 44.174911673139064 35.58229062225547 36.670730238739736 C 0.0 **** -0.24
14887 H 44.060386389502284 36.665471615761646 36.630770917502645 H 0.0 **** 0.06
14888 H 45.22516389826377 35.32336010404316 36.53699130648107 H 0.0 **** 0.06
14889 H 43.58314082200246 35.124817553786954 35.87788756429268 H 0.0 **** 0.06
14890 H 43.83061656769006 35.216467222203164 37.63867652442377 H 0.0 **** 0.06
14891 C 38.221431384894245 37.714621740348406 158.32031386068428 C 0.0 **** -0.24
14892 H 39.25637647015344 38.018572888821524 158.47804538586928 H 0.0 **** 0.06
14893 H 38.19182859448141 36.66355498085292 158.03392394510144 H 0.0 **** 0.06
14894 H 37.78102901658269 38.320578237576015 157.52892564169144 H 0.0 **** 0.06
14895 H 37.657438875459036 37.85595598502131 159.24237836028897 H 0.0 **** 0.06
14896 C 91.96598573617388 34.14177331108401 74.71069725276647 C 0.0 **** -0.24
14897 H 91.83867256227893 33.30133443883513 75.39243597829245 H 0.0 **** 0.06
14898 H 92.92299257239046 34.62659279823413 74.90676324675175 H 0.0 **** 0.06
14899 H 91.15807857831723 34.85729560828807 74.86258771320928 H 0.0 **** 0.06
14900 H 91.94409106417953 33.78220200442736 73.68193928559081 H 0.0 **** 0.06
14901 C 135.73015095179176 5.577401981149251 52.196753768713094 C 0.0 **** -0.24
14902 H 134.9784568235395 6.2485534310291655 51.78028222109698 H 0.0 **** 0.06
14903 H 136.64623901460754 6.134528188220429 52.39214285966199 H 0.0 **** 0.06
14904 H 135.93556624294428 4.776705207845453 51.48693262028233 H 0.0 **** 0.06
14905 H 135.35858540923027 5.150812181509991 53.12862342480791 H 0.0 **** 0.06
14906 C 90.09087757796087 1.197734935842206 48.96754580591545 C 0.0 **** -0.24
14907 H 89.0766929901746 1.054410069428414 48.59363607726446 H 0.0 **** 0.06
14908 H 90.18403699878418 2.200360979894313 49.38541086486251 H 0.0 **** 0.06
14909 H 90.7998149507477 1.0770471887549746 48.14881379463503 H 0.0 **** 0.06
14910 H 90.29986020328184 0.4597093262321934 49.74220981603608 H 0.0 **** 0.06
14911 C 44.1039672609204 9.045187269356404 120.4422065861776 C 0.0 **** -0.24
14912 H 43.76650645149718 8.118529090820886 120.90657786176925 H 0.0 **** 0.06
14913 H 45.106769568511766 9.285450950507993 120.79765672199304 H 0.0 **** 0.06
14914 H 43.42141239543889 9.852954045065019 120.70643101731693 H 0.0 **** 0.06
14915 H 44.12196639845507 8.923061920324471 119.35906379957024 H 0.0 **** 0.06
14916 C 88.36387879734653 85.24195039855186 99.13295437387762 C 0.0 **** -0.24
14917 H 88.0159154694216 86.27082375442887 99.03348558643768 H 0.0 **** 0.06
14918 H 88.52056041137229 85.01246246858985 100.1867669789691 H 0.0 **** 0.06
14919 H 89.30190527811091 85.12247982243699 98.59066389537793 H 0.0 **** 0.06
14920 H 87.61542850686115 84.56468556107987 98.72063849779164 H 0.0 **** 0.06
14921 C 5.843780398257536 158.3518955377405 139.68753589085543 C 0.0 **** -0.24
14922 H 5.760628898454684 157.71049206644815 140.5648552557243 H 0.0 **** 0.06
14923 H 6.502519980101624 159.1901178816385 139.911489634715 H 0.0 **** 0.06
14924 H 4.856619787213788 158.72638835860488 139.4173083931438 H 0.0 **** 0.06
14925 H 6.254311093787351 157.77779379236028 138.8568514791936 H 0.0 **** 0.06
14926 C 144.43052541192242 114.33409555315166 132.02945233172818 C 0.0 **** -0.24
14927 H 145.46983559690432 114.45293128840854 131.72581732975215 H 0.0 **** 0.06
14928 H 143.96480324743263 115.31516558793192 132.12277600690146 H 0.0 **** 0.06
14929 H 144.38947420831005 113.81870498579514 132.98891739682475 H 0.0 **** 0.06
14930 H 143.89813087520463 113.74820725414213 131.27999130987416 H 0.0 **** 0.06
14931 C 35.48695520882248 67.21282332882443 35.605488636072636 C 0.0 **** -0.24
14932 H 35.71621047488031 66.8060999230145 34.620321663855634 H 0.0 **** 0.06
14933 H 34.720121935780895 67.98239279887117 35.51098228060377 H 0.0 **** 0.06
14934 H 36.38792807635623 67.64776919745071 36.03755555732752 H 0.0 **** 0.06
14935 H 35.122552288023556 66.41451907129449 36.25224569079212 H 0.0 **** 0.06
14936 C 53.62200878959996 139.8817366786792 86.22709353183424 C 0.0 **** -0.24
14937 H 52.7910251106745 140.57713271652221 86.34264573862569 H 0.0 **** 0.06
14938 H 53.88156337251192 139.46081254654115 87.19871185403645 H 0.0 **** 0.06
14939 H 54.483845179000866 140.41123844806594 85.81819276467834 H 0.0 **** 0.06
14940 H 53.334070614428356 139.07970374818927 85.54845327380525 H 0.0 **** 0.06
14941 C 113.7307574284263 118.54239103738564 135.84921524903868 C 0.0 **** -0.24
14942 H 112.92197363662396 118.81795918429592 135.1718520863215 H 0.0 **** 0.06
14943 H 114.63992162164195 118.36386330430986 135.2755645218171 H 0.0 **** 0.06
14944 H 113.45855278432234 117.63699014105302 136.3911328507199 H 0.0 **** 0.06
14945 H 113.90145688922394 119.35292213207603 136.55846480009052 H 0.0 **** 0.06
14946 C 105.18501437588668 81.23975147729941 78.95595939411419 C 0.0 **** -0.24
14947 H 105.0811790018025 80.18160896514726 79.19792327961017 H 0.0 **** 0.06
14948 H 104.22797799445942 81.62798238200989 78.60550393879134 H 0.0 **** 0.06
14949 H 105.93489432424477 81.36091484438982 78.17383128681558 H 0.0 **** 0.06
14950 H 105.49586956776477 81.7872792825719 79.84535761103763 H 0.0 **** 0.06
14951 C 129.32067507575232 61.36773396670992 156.86440226457674 C 0.0 **** -0.24
14952 H 128.41393718083066 61.64521992571866 156.32703759950942 H 0.0 **** 0.06
14953 H 129.95421580126663 62.246550534844005 156.98530491492997 H 0.0 **** 0.06
14954 H 129.85872141983862 60.60569996485265 156.30045973991875 H 0.0 **** 0.06
14955 H 129.0546920605575 60.97272292261238 157.8452106998003 H 0.0 **** 0.06
14956 C 35.42910665555314 35.164024975840874 79.23704056339737 C 0.0 **** -0.24
14957 H 34.67096428212531 34.90465227700645 79.97602825089328 H 0.0 **** 0.06
14958 H 35.0616524980461 34.91851529238485 78.23959364420045 H 0.0 **** 0.06
14959 H 36.33964891372153 34.599939539192434 79.43861007089815 H 0.0 **** 0.06
14960 H 35.642174320507536 36.23082651986266 79.29332952640979 H 0.0 **** 0.06
14961 C 16.975759713402738 69.69066158231846 108.52101357764136 C 0.0 **** -0.24
14962 H 18.01059178959656 69.71592282545049 108.86085216652779 H 0.0 **** 0.06
14963 H 16.394211525305593 69.04149781621334 109.17468698948298 H 0.0 **** 0.06
14964 H 16.938400977223523 69.30717049660632 107.50075733208388 H 0.0 **** 0.06
14965 H 16.560791349859414 70.6987882055709 108.54501054795367 H 0.0 **** 0.06
14966 C 159.9995061423272 92.03795556829512 24.692589921599335 C 0.0 **** -0.24
14967 H 160.5411587259201 92.93157672317702 24.3829392185105 H 0.0 **** 0.06
14968 H 159.42527341173314 92.25477033155974 25.593639310778485 H 0.0 **** 0.06
14969 H 160.7087767429165 91.23602424287921 24.89687945644289 H 0.0 **** 0.06
14970 H 159.32337913978057 91.72966193525404 23.8956218259479 H 0.0 **** 0.06
14971 C 18.53204222196416 75.54593117602228 18.773990353271927 C 0.0 **** -0.24
14972 H 17.8575154666799 76.31981436647416 19.140076837279594 H 0.0 **** 0.06
14973 H 18.91480725049243 75.8305073010013 17.79372088646562 H 0.0 **** 0.06
14974 H 17.99314733563125 74.60212268220808 18.694349490820144 H 0.0 **** 0.06
14975 H 19.364123333863944 75.43199473502504 19.469674479293843 H 0.0 **** 0.06
14976 C 83.56779105301189 51.79159107679284 119.07900911254342 C 0.0 **** -0.24
14977 H 82.72335945009752 52.474528552305756 118.98425396044206 H 0.0 **** 0.06
14978 H 84.23020374417172 51.91156015906118 118.22155840787715 H 0.0 **** 0.06
14979 H 83.20219858901572 50.764928785563555 119.11500317739984 H 0.0 **** 0.06
14980 H 84.11480974748775 52.014552766957095 119.99508579579532 H 0.0 **** 0.06
14981 C 128.95809243539125 145.23385017319043 13.65945864123919 C 0.0 **** -0.24
14982 H 128.67118913079187 145.08059837780286 14.700220988558314 H 0.0 **** 0.06
14983 H 129.95618770720432 145.67143954459215 13.61902025728817 H 0.0 **** 0.06
14984 H 128.24646435189328 145.90596933998853 13.181288051194151 H 0.0 **** 0.06
14985 H 128.96018192275685 144.2760970937659 13.138564655281002 H 0.0 **** 0.06
14986 C 98.38386976413233 42.74882014598879 154.12779232079407 C 0.0 **** -0.24
14987 H 97.51413052669929 42.49826563057397 153.5193706012797 H 0.0 **** 0.06
14988 H 98.11313963126616 43.521550928531695 154.84642932992398 H 0.0 **** 0.06
14989 H 99.18357617821545 43.11537550431029 153.48349215468906 H 0.0 **** 0.06
14990 H 98.723087680416 41.859214083409086 154.6592602308885 H 0.0 **** 0.06
14991 C 47.947295891230596 89.14785531505419 135.5290882857502 C 0.0 **** -0.24
14992 H 48.95139406925912 89.3924780973021 135.18253612417513 H 0.0 **** 0.06
14993 H 47.33463274827457 88.84297029900767 134.6806450889989 H 0.0 **** 0.06
14994 H 47.50339828292246 90.02329677505816 136.00254684188104 H 0.0 **** 0.06
14995 H 48.00123776707456 88.3318036062991 136.2508498734717 H 0.0 **** 0.06
14996 C 126.94595251461786 40.25493346726857 158.37552801022025 C 0.0 **** -0.24
14997 H 126.69955882125296 39.47025576890093 159.08992906991807 H 0.0 **** 0.06
14998 H 127.0378936639244 39.82251940112094 157.378478964376 H 0.0 **** 0.06
14999 H 127.89003787465032 40.72094210978308 158.65821978979892 H 0.0 **** 0.06
15000 H 126.15655356221495 41.00675239281401 158.37484866100425 H 0.0 **** 0.06
15001 C 102.46539173679605 11.292257182771209 125.73351830158543 C 0.0 **** -0.24
15002 H 102.22252475564758 10.290270237242694 126.08907938650293 H 0.0 **** 0.06
15003 H 102.36408713777854 11.326828420545311 124.64911798716972 H 0.0 **** 0.06
15004 H 103.49125722942298 11.536595792207486 126.01156061908313 H 0.0 **** 0.06
15005 H 101.78533789162881 12.013390601848236 126.18590661608118 H 0.0 **** 0.06
15006 C 40.33971039982157 75.91988595354822 3.7079960482616343 C 0.0 **** -0.24
15007 H 39.93162445663313 75.82707227669067 2.701762811513021 H 0.0 **** 0.06
15008 H 41.42083957061166 76.05554440011633 3.6507035444230382 H 0.0 **** 0.06
15009 H 40.11747702666128 75.01570423838211 4.275052148898993 H 0.0 **** 0.06
15010 H 39.891565593322355 76.7803261006682 4.204771488231643 H 0.0 **** 0.06
15011 C 107.45075573685381 60.191640813709796 22.084350013504434 C 0.0 **** -0.24
15012 H 106.36122305666206 60.219172205000945 22.062385864864268 H 0.0 **** 0.06
15013 H 107.79552424787619 59.21323205703939 21.750461079334343 H 0.0 **** 0.06
15014 H 107.79763286142455 60.37200195511991 23.101123307882858 H 0.0 **** 0.06
15015 H 107.84647911865042 60.96238896217997 21.422915093081315 H 0.0 **** 0.06
15016 C 102.85999352201156 54.68019972360368 151.34339613753318 C 0.0 **** -0.24
15017 H 102.70734531640647 55.65480702016954 150.8809634769255 H 0.0 **** 0.06
15018 H 103.72855939807835 54.19711736760418 150.8946850469803 H 0.0 **** 0.06
15019 H 101.97714711712689 54.06026677381084 151.18527517685536 H 0.0 **** 0.06
15020 H 103.02724735243294 54.807333149969764 152.41318028318264 H 0.0 **** 0.06
15021 C 70.89278131758037 14.621780394907091 88.32484659760041 C 0.0 **** -0.24
15022 H 71.8482411309858 14.108204790669816 88.4320310232709 H 0.0 **** 0.06
15023 H 70.64649353246384 14.713791814758792 87.26690326762238 H 0.0 **** 0.06
15024 H 70.96326765885807 15.614595219838321 88.7687421288287 H 0.0 **** 0.06
15025 H 70.1154774806713 14.051198874157365 88.83161704198281 H 0.0 **** 0.06
15026 C 102.04356220939243 142.12511147738326 116.86879166715906 C 0.0 **** -0.24
15027 H 101.72190107951064 143.12392103892154 116.57376720389266 H 0.0 **** 0.06
15028 H 103.11531813806707 142.022668778235 116.69445686776206 H 0.0 **** 0.06
15029 H 101.50674958120379 141.3822102170208 116.27959581779405 H 0.0 **** 0.06
15030 H 101.83149917724103 141.97369568276298 117.9267880555459 H 0.0 **** 0.06
15031 C 82.21365876146552 8.540126957200584 32.08852881526707 C 0.0 **** -0.24
15032 H 81.81534932503658 9.169860317803398 32.88330318981889 H 0.0 **** 0.06
15033 H 82.56915604894675 7.600616062020208 32.51377446942695 H 0.0 **** 0.06
15034 H 83.04064332674454 9.053363721545168 31.598230542250576 H 0.0 **** 0.06
15035 H 81.42886460115699 8.335159982369078 31.360336860260702 H 0.0 **** 0.06
15036 C 36.35322051127764 121.04230583389855 77.14889435375454 C 0.0 **** -0.24
15037 H 35.96996128838879 121.6975947017211 77.93014698879904 H 0.0 **** 0.06
15038 H 37.293699148067276 121.44298820094446 76.76860699194813 H 0.0 **** 0.06
15039 H 35.62898915819977 120.9811204487232 76.33681360621131 H 0.0 **** 0.06
15040 H 36.52231084003881 120.04727076800086 77.56128197942667 H 0.0 **** 0.06
15041 C 143.68687681715198 151.01883635241634 104.82170917307127 C 0.0 **** -0.24
15042 H 144.40719936169864 150.49381226822874 105.449182680754 H 0.0 **** 0.06
15043 H 143.11233683693985 150.29439392418868 104.2450560578443 H 0.0 **** 0.06
15044 H 144.21692065953908 151.68672518564523 104.14185777663573 H 0.0 **** 0.06
15045 H 143.01316902042933 151.60095632019852 105.45120661638362 H 0.0 **** 0.06
15046 C 76.7793094630171 33.30120009908609 32.02781438619232 C 0.0 **** -0.24
15047 H 77.77661765700111 33.585464426537044 32.36380251212515 H 0.0 **** 0.06
15048 H 76.14606231359308 33.10724278323454 32.89423720429522 H 0.0 **** 0.06
15049 H 76.84366895465566 32.401135183659164 31.41694792036043 H 0.0 **** 0.06
15050 H 76.35014945533463 34.11067016711746 31.437809525804425 H 0.0 **** 0.06
15051 C 154.4299504746874 143.4455731669271 8.186014474619242 C 0.0 **** -0.24
15052 H 153.7105229727116 143.8399947552299 8.903849097571623 H 0.0 **** 0.06
15053 H 154.0959082866721 142.46815675200733 7.836973153086262 H 0.0 **** 0.06
15054 H 155.40407931546542 143.34614068263573 8.665406855134108 H 0.0 **** 0.06
15055 H 154.50887895397742 144.12721340654878 7.338929033656882 H 0.0 **** 0.06
15056 C 45.879484805317475 131.75799167087746 125.71097090791943 C 0.0 **** -0.24
15057 H 44.950450541678066 131.25770475013155 125.98596584848497 H 0.0 **** 0.06
15058 H 46.72349971145161 131.2202616449963 126.14392256727874 H 0.0 **** 0.06
15059 H 45.866534867775954 132.78077133033258 126.08851023533177 H 0.0 **** 0.06
15060 H 45.976404319693614 131.7723745271365 124.62507514071297 H 0.0 **** 0.06
15061 C 116.9851306638732 24.401128493530024 58.640953094783185 C 0.0 **** -0.24
15062 H 116.20721176208971 25.163905995457093 58.668403227839846 H 0.0 **** 0.06
15063 H 117.33536308629454 24.202417137275873 59.65402708720643 H 0.0 **** 0.06
15064 H 117.81694565868622 24.752484968059726 58.030859427864016 H 0.0 **** 0.06
15065 H 116.58062565246544 23.4848481049681 58.21017261562915 H 0.0 **** 0.06
15066 C 126.48716550281998 75.0333967633415 150.62955426515276 C 0.0 **** -0.24
15067 H 126.376478304205 76.0968781736942 150.8420430852537 H 0.0 **** 0.06
15068 H 127.5054292696403 74.72184912066938 150.86097337540866 H 0.0 **** 0.06
15069 H 126.28247968733587 74.85129070490265 149.57405581061892 H 0.0 **** 0.06
15070 H 125.7841373530151 74.46618747325721 151.23968695711093 H 0.0 **** 0.06
15071 C 85.43975497566333 61.16065267843044 113.74892458971485 C 0.0 **** -0.24
15072 H 86.42341093189259 61.55220454254976 113.49094603721699 H 0.0 **** 0.06
15073 H 85.52245182452032 60.101326634708755 113.99289883675311 H 0.0 **** 0.06
15074 H 84.76466581659838 61.286739795952144 112.90139725820393 H 0.0 **** 0.06
15075 H 85.04649311759033 61.7032921192054 114.60940727268277 H 0.0 **** 0.06
15076 C 4.778903687714092 60.183334480645044 93.50162699800134 C 0.0 **** -0.24
15077 H 5.406212489219882 60.44581235096547 92.64918291167197 H 0.0 **** 0.06
15078 H 4.0545607461911 60.978061590521364 93.67771775511795 H 0.0 **** 0.06
15079 H 5.403286063508858 60.05735285497241 94.386068703521 H 0.0 **** 0.06
15080 H 4.253859500393361 59.250981893717025 93.29198412289855 H 0.0 **** 0.06
15081 C 153.91597269603918 22.199400475292975 96.98323774244298 C 0.0 **** -0.24
15082 H 153.57806534119302 22.687798586331496 97.89765109734878 H 0.0 **** 0.06
15083 H 155.0056707220438 22.17955753620231 96.96460099830364 H 0.0 **** 0.06
15084 H 153.54776877730407 22.751448123215738 96.11895705845981 H 0.0 **** 0.06
15085 H 153.5327659174553 21.18012487526687 96.9537652504736 H 0.0 **** 0.06
15086 C 85.45147234647479 88.06558590279947 6.912473899815552 C 0.0 **** -0.24
15087 H 84.46845330440844 88.17352721356382 6.4544956461888034 H 0.0 **** 0.06
15088 H 85.69684679997589 87.0063391424936 7.000772211248687 H 0.0 **** 0.06
15089 H 85.44318102127562 88.5214061424794 7.9022617565748305 H 0.0 **** 0.06
15090 H 86.19772827078324 88.56039743000335 6.291164400759101 H 0.0 **** 0.06
15091 C 123.11039445777828 3.5487182105708897 72.29077216653252 C 0.0 **** -0.24
15092 H 122.08233724103064 3.340026570861859 72.58861616359775 H 0.0 **** 0.06
15093 H 123.12301642463524 3.9194429483029936 71.26604552133654 H 0.0 **** 0.06
15094 H 123.69877161967548 2.632630729680834 72.3539618626503 H 0.0 **** 0.06
15095 H 123.5359245093913 4.300230775456086 72.95491737708653 H 0.0 **** 0.06
15096 C 46.80720278938263 42.72272694576429 142.68957963897213 C 0.0 **** -0.24
15097 H 47.08328769071217 41.887824723931544 142.04593125124936 H 0.0 **** 0.06
15098 H 46.75776052205346 42.38231006265346 143.7240924118085 H 0.0 **** 0.06
15099 H 45.83382912913004 43.108677500722706 142.3871399987597 H 0.0 **** 0.06
15100 H 47.55423306515155 43.51155323714568 142.6019400281447 H 0.0 **** 0.06
15101 C 118.53140110092124 24.375945606934287 125.28009683125202 C 0.0 **** -0.24
15102 H 118.89855331752256 25.396154800497328 125.38941421915365 H 0.0 **** 0.06
15103 H 118.07090804014592 24.053719836999704 126.21424647807027 H 0.0 **** 0.06
15104 H 119.36184366177008 23.713856144493732 125.03589908656772 H 0.0 **** 0.06
15105 H 117.79147131889022 24.340658720251987 124.48003143914747 H 0.0 **** 0.06
15106 C 136.8808833491476 126.8021511446118 55.321965797367824 C 0.0 **** -0.24
15107 H 136.6770440461299 127.70474711233004 54.74661730473926 H 0.0 **** 0.06
15108 H 137.438439623584 127.0643982464924 56.2223648102875 H 0.0 **** 0.06
15109 H 137.46883345720892 126.11146745486423 54.717842006442254 H 0.0 **** 0.06
15110 H 135.9397046100192 126.32975719966618 55.60232161008524 H 0.0 **** 0.06
15111 C 145.9352520301947 150.4286586009278 81.70828155955837 C 0.0 **** -0.24
15112 H 146.12500438048872 151.0598661766307 80.8398946005376 H 0.0 **** 0.06
15113 H 146.69933984490842 150.61074653661882 82.46328792930296 H 0.0 **** 0.06
15114 H 145.96189571453243 149.38089987807166 81.40862069326431 H 0.0 **** 0.06
15115 H 144.95294534928738 150.6638161035961 82.11984131816268 H 0.0 **** 0.06
15116 C 7.747310722765235 55.96438381425284 100.03956698707162 C 0.0 **** -0.24
15117 H 6.847855798001632 56.40825679887786 99.61306673736604 H 0.0 **** 0.06
15118 H 8.200513198053386 56.664417727350724 100.7408699655152 H 0.0 **** 0.06
15119 H 8.454959864978235 55.7399444888664 99.24085204020935 H 0.0 **** 0.06
15120 H 7.485780811728205 55.04358358823242 100.56168855225812 H 0.0 **** 0.06
15121 C 64.33083355799934 61.45734596259783 37.6336811706485 C 0.0 **** -0.24
15122 H 64.74580944689282 60.46852611039391 37.82748042270954 H 0.0 **** 0.06
15123 H 63.73758806437132 61.43027073001434 36.719467528892366 H 0.0 **** 0.06
15124 H 65.14316114748485 62.175667808151104 37.51837938705549 H 0.0 **** 0.06
15125 H 63.69856999141574 61.75618293284916 38.46982536059271 H 0.0 **** 0.06
15126 C 10.537016232087183 94.53318142056298 12.844535531870719 C 0.0 **** -0.24
15127 H 11.056107626554677 94.6403702677881 13.79647854598226 H 0.0 **** 0.06
15128 H 9.589513834394985 95.0727801730849 12.88544181455179 H 0.0 **** 0.06
15129 H 10.345665786186238 93.47799151216635 12.651929480884796 H 0.0 **** 0.06
15130 H 11.154479197104088 94.94343050472403 12.045435392713976 H 0.0 **** 0.06
15131 C 17.942001940960687 158.6501158265467 74.76133503625152 C 0.0 **** -0.24
15132 H 17.86443008276145 157.56275003618384 74.77197047335291 H 0.0 **** 0.06
15133 H 18.21052457464308 158.98411481051505 73.75836336398069 H 0.0 **** 0.06
15134 H 18.710431297678817 158.96651523534445 75.46712934972972 H 0.0 **** 0.06
15135 H 16.984174022813427 159.08546995796684 75.04564350644922 H 0.0 **** 0.06
15136 C 154.04826508599712 43.83587214749785 120.30068048462829 C 0.0 **** -0.24
15137 H 153.37896934449302 43.25240752336211 119.66823593615518 H 0.0 **** 0.06
15138 H 154.20320864917238 44.81908223068258 119.85491897886769 H 0.0 **** 0.06
15139 H 155.0056372800092 43.3211958886876 120.38811455525624 H 0.0 **** 0.06
15140 H 153.60530386462037 43.95083590698195 121.2897217032513 H 0.0 **** 0.06
15141 C 37.95959980174901 1.7620555012561567 6.986066631901792 C 0.0 **** -0.24
15142 H 38.838302991299486 2.396359464672571 6.867466229741694 H 0.0 **** 0.06
15143 H 37.25890044281317 1.9578601541255694 6.173757679420646 H 0.0 **** 0.06
15144 H 37.48023083008121 1.9802825071799646 7.940179417756951 H 0.0 **** 0.06
15145 H 38.261222361286286 0.7154025376016762 6.961813192768744 H 0.0 **** 0.06
15146 C 55.90417760099787 61.706222946972176 94.88710334231922 C 0.0 **** -0.24
15147 H 56.337796691948185 60.778808936254265 94.5112208712452 H 0.0 **** 0.06
15148 H 55.69518477172241 62.373756417258676 94.05055929152252 H 0.0 **** 0.06
15149 H 56.60693660218283 62.185394016099195 95.56835271867732 H 0.0 **** 0.06
15150 H 54.97847301942211 61.48470152070921 95.4167976836419 H 0.0 **** 0.06
15151 C 103.82624751396827 1.0986409342635213 99.62999406982652 C 0.0 **** -0.24
15152 H 103.61873083595756 2.0849762069202598 99.2168725761635 H 0.0 **** 0.06
15153 H 104.8552830974308 0.8190032574366697 99.40154401018481 H 0.0 **** 0.06
15154 H 103.1446301045579 0.36998185156394214 99.19044484181816 H 0.0 **** 0.06
15155 H 103.68634601792633 1.1206024211333627 100.71111485113966 H 0.0 **** 0.06
15156 C 13.153299757485513 97.90138550493322 124.9786318815178 C 0.0 **** -0.24
15157 H 12.696853149116805 97.85086762500123 125.96668717584751 H 0.0 **** 0.06
15158 H 14.175760424379149 97.52505359516496 125.03026891295153 H 0.0 **** 0.06
15159 H 13.163531689580225 98.93537486388607 124.63543785999093 H 0.0 **** 0.06
15160 H 12.57687764422775 97.2924402041526 124.28129189136243 H 0.0 **** 0.06
15161 C 104.01209806524287 63.0026340321764 161.53516936537784 C 0.0 **** -0.24
15162 H 104.98124358291074 63.49912168566506 161.49976035428327 H 0.0 **** 0.06
15163 H 104.15621599980591 61.93906998007071 161.7270062835108 H 0.0 **** 0.06
15164 H 103.50080686585864 63.134356135134794 160.58128180906152 H 0.0 **** 0.06
15165 H 103.4094535501556 63.43801189544534 162.3333689729164 H 0.0 **** 0.06
15166 C 127.92118858992282 150.41233109180195 77.28912221872355 C 0.0 **** -0.24
15167 H 127.64986249230574 149.64170169899694 76.56804086145735 H 0.0 **** 0.06
15168 H 128.9516233314894 150.722980003285 77.11813585683166 H 0.0 **** 0.06
15169 H 127.82413837894464 150.01513912779353 78.29900271863082 H 0.0 **** 0.06
15170 H 127.25793253608612 151.2694762074978 77.17055776137232 H 0.0 **** 0.06
15171 C 138.32414761941587 99.58624026420281 37.27824399728641 C 0.0 **** -0.24
15172 H 139.20614091562317 99.51646369460218 36.64095368952633 H 0.0 **** 0.06
15173 H 138.6138581949079 99.96961862756456 38.25708499417554 H 0.0 **** 0.06
15174 H 137.8783865149602 98.59810039010199 37.390931505083046 H 0.0 **** 0.06
15175 H 137.59997513234498 100.26157683509362 36.82289734564789 H 0.0 **** 0.06
15176 C 41.76943918352538 0.18132855190197006 155.54713714841196 C 0.0 **** -0.24
15177 H 41.433650454732856 0.7790265154085318 156.39472663576925 H 0.0 **** 0.06
15178 H 42.38466601344987 0.7968695987981818 154.89070815071318 H 0.0 **** 0.06
15179 H 40.90390191775708 -0.1848951230129927 154.99580486072935 H 0.0 **** 0.06
15180 H 42.35439990350915 -0.6642547749988026 155.90859481037907 H 0.0 **** 0.06
15181 C 49.64110862361494 88.92793623344166 21.594815207052335 C 0.0 **** -0.24
15182 H 49.97975268939453 89.23774083535132 20.605801464719832 H 0.0 **** 0.06
15183 H 50.38353463483023 89.21529391539104 22.338479107823474 H 0.0 **** 0.06
15184 H 49.509507599695795 87.84664194994424 21.61042476743671 H 0.0 **** 0.06
15185 H 48.69150248102429 89.41256942565907 21.821600782815153 H 0.0 **** 0.06
15186 C 59.57199588446396 89.75887322788083 153.32160714658963 C 0.0 **** -0.24
15187 H 59.69833844159618 90.23387360000223 154.29441445320882 H 0.0 **** 0.06
15188 H 60.02809824515958 90.38041019253978 152.5515128196857 H 0.0 **** 0.06
15189 H 58.509318475605724 89.63983481240564 153.11093102484216 H 0.0 **** 0.06
15190 H 60.05210161386671 88.78015974885892 153.33028361982244 H 0.0 **** 0.06
15191 C 136.94363466539443 37.497140081076054 109.18690776256281 C 0.0 **** -0.24
15192 H 136.66848460823672 36.44487192728178 109.25585718770711 H 0.0 **** 0.06
15193 H 137.7332984718015 37.71426152478273 109.90676971591049 H 0.0 **** 0.06
15194 H 136.07227989810968 38.115564718953294 109.40481078119853 H 0.0 **** 0.06
15195 H 137.29979267611168 37.71454675830495 108.17993871439583 H 0.0 **** 0.06
15196 C 28.644399649095533 11.588952747263875 36.803229985889075 C 0.0 **** -0.24
15197 H 29.078511251929285 11.906449104185526 37.75140931572601 H 0.0 **** 0.06
15198 H 27.855063923931482 12.283166944640584 36.514021353839155 H 0.0 **** 0.06
15199 H 28.225721999094446 10.587740060612191 36.914347476044924 H 0.0 **** 0.06
15200 H 29.417444209586762 11.575775558656858 36.035163378816335 H 0.0 **** 0.06
15201 C 75.14418554735558 80.75130719891794 162.79912980046578 C 0.0 **** -0.24
15202 H 74.40038065786229 79.98900884948893 162.5659337723601 H 0.0 **** 0.06
15203 H 74.83484564518724 81.29936857097823 163.68865686003716 H 0.0 **** 0.06
15204 H 75.23202670205212 81.44025490654548 161.95935791006866 H 0.0 **** 0.06
15205 H 76.10747711654001 80.27520179088984 162.98115407949956 H 0.0 **** 0.06
15206 C 3.677878673840155 72.07884423953847 68.55403427043981 C 0.0 **** -0.24
15207 H 3.1382158906315283 72.10109157801463 67.60618562535085 H 0.0 **** 0.06
15208 H 4.1209387285348384 73.05765529082774 68.74120427087045 H 0.0 **** 0.06
15209 H 4.464675309371501 71.32579222115695 68.50555149570721 H 0.0 **** 0.06
15210 H 2.986475527849109 71.83157008940734 69.35932243458448 H 0.0 **** 0.06
15211 C 10.452147430742443 86.45269656781528 79.99845613453385 C 0.0 **** -0.24
15212 H 9.447620348577345 86.40114215479116 79.57791201756137 H 0.0 **** 0.06
15213 H 10.387483253777752 86.56515089701301 81.08123517858883 H 0.0 **** 0.06
15214 H 10.979396678754917 87.30702717207839 79.5752312870973 H 0.0 **** 0.06
15215 H 10.992613486794745 85.53699891788861 79.76022286710818 H 0.0 **** 0.06
15216 C 12.763655928173307 138.6810546067073 95.32627772768406 C 0.0 **** -0.24
15217 H 12.20474109978636 137.74669278266657 95.37603761117371 H 0.0 **** 0.06
15218 H 13.782742087841143 138.47696984398192 94.9938296213964 H 0.0 **** 0.06
15219 H 12.790192708662005 139.14170613819132 96.3141830088863 H 0.0 **** 0.06
15220 H 12.280029659152206 139.35701829893222 94.62213247949893 H 0.0 **** 0.06
15221 C 40.22780119347888 99.26128660286071 100.4076681764229 C 0.0 **** -0.24
15222 H 40.196562941323265 98.764874408559 99.43776304637069 H 0.0 **** 0.06
15223 H 39.21182735547599 99.46618053983909 100.74432003426173 H 0.0 **** 0.06
15224 H 40.77833717793246 100.19752917726265 100.31913677654319 H 0.0 **** 0.06
15225 H 40.72630313658938 98.61384479098601 101.12998376449895 H 0.0 **** 0.06
15226 C 96.2278502251495 71.47427108535709 71.7800592033857 C 0.0 **** -0.24
15227 H 96.31261177636289 70.57250273695865 72.38719939144848 H 0.0 **** 0.06
15228 H 96.2806718809098 72.35239936472934 72.42357956127063 H 0.0 **** 0.06
15229 H 95.273943756774 71.46707062965203 71.25115419484413 H 0.0 **** 0.06
15230 H 97.0431645973768 71.50193016747312 71.05737580409169 H 0.0 **** 0.06
15231 C 140.13380767884834 132.63740873708977 111.9511800922499 C 0.0 **** -0.24
15232 H 139.35769635676047 132.37131959758864 112.66939570621537 H 0.0 **** 0.06
15233 H 140.17249190255313 131.88365124694565 111.16356655153052 H 0.0 **** 0.06
15234 H 141.09724386212022 132.68372509388306 112.45790126029729 H 0.0 **** 0.06
15235 H 139.90503342025568 133.60895405409778 111.51321332407642 H 0.0 **** 0.06
15236 C 18.691717040570396 106.34004071731812 9.553772095165478 C 0.0 **** -0.24
15237 H 17.946207554394483 105.58751553354111 9.297552856263074 H 0.0 **** 0.06
15238 H 19.683934942269133 105.88894824238676 9.538736348564754 H 0.0 **** 0.06
15239 H 18.483936882254575 106.73193727292735 10.549747180256311 H 0.0 **** 0.06
15240 H 18.64952203525921 107.15329933512928 8.828069739065334 H 0.0 **** 0.06
15241 C 3.1216743473455395 103.09610522460824 101.40939584547431 C 0.0 **** -0.24
15242 H 3.8195179713088194 103.12543176719228 100.57244178854293 H 0.0 **** 0.06
15243 H 2.318702396264449 102.39392295269846 101.18832817206399 H 0.0 **** 0.06
15244 H 2.70220834913183 104.08952883742899 101.56709380338802 H 0.0 **** 0.06
15245 H 3.647846752884064 102.77671324515714 102.30936320064745 H 0.0 **** 0.06
15246 C 100.69939599602449 34.23106754954418 105.01583096001022 C 0.0 **** -0.24
15247 H 100.69353966525631 33.28978213689791 105.5656676079391 H 0.0 **** 0.06
15248 H 100.10020796529469 34.96823870785397 105.55115261163536 H 0.0 **** 0.06
15249 H 100.27930151879167 34.074394542429786 104.02206636525639 H 0.0 **** 0.06
15250 H 101.72396208414861 34.59245200261782 104.92499881472463 H 0.0 **** 0.06
15251 C 135.16868102846237 120.74273033215397 13.06342725189404 C 0.0 **** -0.24
15252 H 134.49959269791975 121.40288366504774 12.51114810985709 H 0.0 **** 0.06
15253 H 135.01136517680584 120.87943484620806 14.133212486304274 H 0.0 **** 0.06
15254 H 136.20211282686452 120.98265303217929 12.814106855656746 H 0.0 **** 0.06
15255 H 134.96021341601434 119.707196207496 12.793701093715185 H 0.0 **** 0.06
15256 C 52.721699232111405 100.7912741272095 143.38739919215743 C 0.0 **** -0.24
15257 H 52.93244552194835 101.27963903751404 142.4360808615561 H 0.0 **** 0.06
15258 H 51.7802691173016 100.24534472528941 143.31467829626723 H 0.0 **** 0.06
15259 H 52.64641812880507 101.54349211148508 144.17289504040696 H 0.0 **** 0.06
15260 H 53.52673618763356 100.09668168900939 143.62557491690075 H 0.0 **** 0.06
15261 C 5.269114414407767 95.35493276022363 102.27514954059822 C 0.0 **** -0.24
15262 H 4.3290654198445395 95.22395533613489 101.73883091360764 H 0.0 **** 0.06
15263 H 5.115933545670011 95.13916407983787 103.33326172736733 H 0.0 **** 0.06
15264 H 5.612675257296971 96.38350342319033 102.15924339591899 H 0.0 **** 0.06
15265 H 6.016741328987429 94.67401021715222 101.86913436458363 H 0.0 **** 0.06
15266 C 95.58742743159269 112.03824855295119 2.118723378611918 C 0.0 **** -0.24
15267 H 95.16656203197039 112.48094434138545 3.020761942274106 H 0.0 **** 0.06
15268 H 95.19173622396352 111.02994813937653 1.9911120818364338 H 0.0 **** 0.06
15269 H 96.67263934388473 111.99466963883765 2.2076324392410527 H 0.0 **** 0.06
15270 H 95.31725608909596 112.64617288236536 1.2557278468282789 H 0.0 **** 0.06
15271 C 144.10424961547108 10.70066466343809 144.70575765882484 C 0.0 **** -0.24
15272 H 143.81479374377534 11.707800999579007 145.006981125801 H 0.0 **** 0.06
15273 H 143.24016712060777 10.185938057767487 144.28371279422873 H 0.0 **** 0.06
15274 H 144.46534587840858 10.151345510750815 145.57533388861032 H 0.0 **** 0.06
15275 H 144.8943652360918 10.758331288018553 143.95712241975207 H 0.0 **** 0.06
15276 C 24.420140064334873 6.418934977392951 6.679807965010866 C 0.0 **** -0.24
15277 H 23.967944745144507 7.394481397067182 6.500257299301381 H 0.0 **** 0.06
15278 H 24.14057706035385 5.736350670588195 5.8756412366169 H 0.0 **** 0.06
15279 H 24.066534420439382 6.024008133128859 7.631585594215267 H 0.0 **** 0.06
15280 H 25.50448299601544 6.520773800124289 6.709524710605422 H 0.0 **** 0.06
15281 C 115.71241447283299 87.43160189499145 23.836117928260478 C 0.0 **** -0.24
15282 H 115.44818204953694 88.18543962859513 23.095282104112584 H 0.0 **** 0.06
15283 H 115.93217121457653 86.48902519396887 23.333989442277755 H 0.0 **** 0.06
15284 H 114.87940495075378 87.2916459810699 24.525088418430244 H 0.0 **** 0.06
15285 H 116.59110498443042 87.76191227123991 24.39108002494305 H 0.0 **** 0.06
15286 C 21.990430254858495 87.44298268981402 82.05020671520845 C 0.0 **** -0.24
15287 H 21.271839343850445 86.9070607120122 81.42977653798562 H 0.0 **** 0.06
15288 H 21.74557644673405 88.50485762910893 82.05531214609988 H 0.0 **** 0.06
15289 H 22.994262343808032 87.30215909576702 81.64772596948922 H 0.0 **** 0.06
15290 H 21.95042487033936 87.05535301312315 83.06927821766709 H 0.0 **** 0.06
15291 C 134.9745066288894 126.74925289979234 124.09499290718361 C 0.0 **** -0.24
15292 H 134.01064012707252 127.24268236970667 123.97331070991481 H 0.0 **** 0.06
15293 H 134.8666119334162 125.90305506482196 124.7739508086778 H 0.0 **** 0.06
15294 H 135.69515893357354 127.45641943536833 124.50604839168045 H 0.0 **** 0.06
15295 H 135.32599582043667 126.39542619192602 123.12478317544321 H 0.0 **** 0.06
15296 C 135.30338516630914 15.329460763324185 80.09965251724583 C 0.0 **** -0.24
15297 H 134.98648907707346 15.039768464248034 79.0975686340775 H 0.0 **** 0.06
15298 H 135.75447741145084 16.321164331212913 80.0646571145133 H 0.0 **** 0.06
15299 H 136.03301683280407 14.610163040410207 80.47133150073753 H 0.0 **** 0.06
15300 H 134.4389185436218 15.34519959968761 80.76237007566186 H 0.0 **** 0.06
15301 C 46.14834228350878 61.85492995226201 158.91390694969513 C 0.0 **** -0.24
15302 H 45.45689991786031 61.17881778037736 159.41639936790153 H 0.0 **** 0.06
15303 H 46.874328849526705 61.27285392660565 158.3443168087941 H 0.0 **** 0.06
15304 H 46.668297690435395 62.45995699945411 159.65563834100004 H 0.0 **** 0.06
15305 H 45.59389657841996 62.50530749287253 158.23747079853112 H 0.0 **** 0.06
15306 C 28.715227332728972 49.63867945644722 9.003871372359775 C 0.0 **** -0.24
15307 H 28.590357642206612 50.666028469899004 9.346248979170205 H 0.0 **** 0.06
15308 H 29.62348398848178 49.21946840503074 9.436816862913126 H 0.0 **** 0.06
15309 H 28.78957364894154 49.62421930358704 7.91706626180725 H 0.0 **** 0.06
15310 H 27.856132500835827 49.04500719963852 9.317127166945362 H 0.0 **** 0.06
15311 C 78.38734120521929 16.62424506916986 47.625812005569756 C 0.0 **** -0.24
15312 H 78.06574253205706 16.019354326079643 46.77794212094102 H 0.0 **** 0.06
15313 H 78.55202836906089 15.979919008303789 48.48993002279349 H 0.0 **** 0.06
15314 H 77.61778686646905 17.358950679656317 47.8612066122532 H 0.0 **** 0.06
15315 H 79.31469113960722 17.138456430604734 47.37381076620099 H 0.0 **** 0.06
15316 C 7.692168983396094 155.15126934579263 36.59757890648366 C 0.0 **** -0.24
15317 H 6.776840679376697 155.3111142241222 37.16793807775721 H 0.0 **** 0.06
15318 H 8.36590918000904 155.99536444162328 36.74770051860132 H 0.0 **** 0.06
15319 H 7.448588291787239 155.06352132675377 35.53841621335587 H 0.0 **** 0.06
15320 H 8.176252390532362 154.23515656813206 36.93535764638118 H 0.0 **** 0.06
15321 C 102.09215538890086 70.01041658046682 87.48583185759568 C 0.0 **** -0.24
15322 H 101.41346495196697 70.04753354123017 88.33836426126383 H 0.0 **** 0.06
15323 H 102.02590690708752 70.94462436840593 86.92826230951735 H 0.0 **** 0.06
15324 H 101.81413973032616 69.17969980902666 86.83737462042927 H 0.0 **** 0.06
15325 H 103.11310177777668 69.86909777352986 87.84000598268234 H 0.0 **** 0.06
15326 C 73.72507173580328 90.73583702915717 46.91843918012631 C 0.0 **** -0.24
15327 H 73.0966062501779 91.59508181830611 47.1517916392698 H 0.0 **** 0.06
15328 H 73.96066312697207 90.1979334730892 47.83712647112684 H 0.0 **** 0.06
15329 H 74.6486175225516 91.07871127238336 46.450682485845334 H 0.0 **** 0.06
15330 H 73.19543387965282 90.07381058837065 46.233782644138586 H 0.0 **** 0.06
15331 C 90.66172797999405 79.08186084315787 65.12094533873619 C 0.0 **** -0.24
15332 H 89.60989860478041 79.05859125201268 64.83593069348682 H 0.0 **** 0.06
15333 H 91.21152288076472 78.33923666058786 64.54307361045699 H 0.0 **** 0.06
15334 H 90.75404754947503 78.8577533711099 66.18358675967487 H 0.0 **** 0.06
15335 H 91.07074453592992 80.07295540679141 64.92233792158551 H 0.0 **** 0.06
15336 C 1.343624693709927 130.79648753204793 97.46699973664334 C 0.0 **** -0.24
15337 H 0.5254387997362926 130.5056595588894 96.80835660085691 H 0.0 **** 0.06
15338 H 2.22484233512273 130.19642163124067 97.23806248052821 H 0.0 **** 0.06
15339 H 1.0505533930373758 130.6319574905403 98.50393557695796 H 0.0 **** 0.06
15340 H 1.573664246943224 131.85191144752162 97.31764428823038 H 0.0 **** 0.06
15341 C 48.16919226000016 9.65003815985068 76.62516501367891 C 0.0 **** -0.24
15342 H 47.68801213843349 10.230464559146697 77.41289641910814 H 0.0 **** 0.06
15343 H 49.25052873361592 9.680898310470297 76.75973449504093 H 0.0 **** 0.06
15344 H 47.911676556346194 10.07218203461889 75.6537541485013 H 0.0 **** 0.06
15345 H 47.82684779918178 8.61619038261108 76.6751341311364 H 0.0 **** 0.06
15346 C 51.16192679958479 122.08386777703114 106.37357622410624 C 0.0 **** -0.24
15347 H 51.548417237857805 121.08491406226105 106.57523551147239 H 0.0 **** 0.06
15348 H 50.559862824680906 122.41791511016774 107.2185402488804 H 0.0 **** 0.06
15349 H 50.54573266441368 122.05988433498524 105.47454427190829 H 0.0 **** 0.06
15350 H 51.994255054846704 122.77217141541561 106.22390104942062 H 0.0 **** 0.06
15351 C 30.914169716806406 135.43946411645493 122.76350185234207 C 0.0 **** -0.24
15352 H 29.900139898833295 135.09006309211048 122.56928726229057 H 0.0 **** 0.06
15353 H 31.56344905595865 135.14694852083022 121.93754733844571 H 0.0 **** 0.06
15354 H 31.280132473597206 134.99595151872415 123.68889347667908 H 0.0 **** 0.06
15355 H 30.91156048228494 136.52559699770666 122.85668135795481 H 0.0 **** 0.06
15356 C 0.10097012267640437 0.4227096897247691 79.48565997361443 C 0.0 **** -0.24
15357 H -0.5584574134228077 -0.4447545843058549 79.52904139341736 H 0.0 **** 0.06
15358 H -0.4861676383722404 1.331042975302637 79.62168480159093 H 0.0 **** 0.06
15359 H 0.5982958811354351 0.45253035357097815 78.51611385397705 H 0.0 **** 0.06
15360 H 0.8474922603123431 0.3504146078162478 80.27599657686551 H 0.0 **** 0.06
15361 C 92.92912632684845 0.0032716592343149387 136.1054309251647 C 0.0 **** -0.24
15362 H 93.01153945708664 1.0771912630846714 135.93559971025172 H 0.0 **** 0.06
15363 H 92.4233745335465 -0.45989598556914757 135.25727424160252 H 0.0 **** 0.06
15364 H 92.3546733651804 -0.17722839630573617 137.01422099551448 H 0.0 **** 0.06
15365 H 93.92528315243494 -0.42456575987500855 136.21392308447977 H 0.0 **** 0.06
15366 C 128.70159552048267 46.051421402343635 70.36211898854417 C 0.0 **** -0.24
15367 H 128.70652036511652 45.269179882916944 69.60336685980043 H 0.0 **** 0.06
15368 H 128.77729279356745 45.5983786240912 71.35135458433109 H 0.0 **** 0.06
15369 H 127.77424092481061 46.619928725824025 70.29153049808636 H 0.0 **** 0.06
15370 H 129.54921817324274 46.7181648655407 70.20112559210006 H 0.0 **** 0.06
15371 C 96.68085264488073 5.329530108385256 96.21191941997739 C 0.0 **** -0.24
15372 H 97.0479633452428 6.19371644165318 96.76470648802552 H 0.0 **** 0.06
15373 H 97.01025409896707 5.394325825122479 95.17523574963104 H 0.0 **** 0.06
15374 H 95.59098344411039 5.312124756724501 96.24730406512259 H 0.0 **** 0.06
15375 H 97.07279808241037 4.417563565532191 96.66212120930459 H 0.0 **** 0.06
15376 C 103.8986052460229 34.925627237857384 18.30069597537129 C 0.0 **** -0.24
15377 H 104.31649884012106 35.00777839523755 17.296871281611942 H 0.0 **** 0.06
15378 H 104.45594924578987 35.571202085475676 18.980517041407218 H 0.0 **** 0.06
15379 H 103.97027018333108 33.892690296393255 18.639473528176417 H 0.0 **** 0.06
15380 H 102.85243611496995 35.23257011514025 18.284352755432444 H 0.0 **** 0.06
15381 C 123.38400636004059 155.497037707443 48.475908264138184 C 0.0 **** -0.24
15382 H 122.36897211003634 155.28620584598193 48.14130968206396 H 0.0 **** 0.06
15383 H 123.95419640708116 154.56849208369346 48.51618500604765 H 0.0 **** 0.06
15384 H 123.35367910749622 155.94763681022823 49.46859482140104 H 0.0 **** 0.06
15385 H 123.86112797305086 156.18596212657906 47.77862784861047 H 0.0 **** 0.06
15386 C 137.7137155523748 15.961953431559898 56.27442212801765 C 0.0 **** -0.24
15387 H 138.3760237746895 16.66093590815757 56.78568740908506 H 0.0 **** 0.06
15388 H 136.70243829100747 16.064722409817506 56.669869646053584 H 0.0 **** 0.06
15389 H 138.06534547371876 14.942977013114259 56.43696849461736 H 0.0 **** 0.06
15390 H 137.71043900652148 16.180254957131915 55.20702364057232 H 0.0 **** 0.06
15391 C 61.87777146099347 112.15398119926937 110.63569884139986 C 0.0 **** -0.24
15392 H 61.722087361401066 112.74154156976078 109.7307197595295 H 0.0 **** 0.06
15393 H 62.79599417424731 111.57571819453901 110.53882900090713 H 0.0 **** 0.06
15394 H 61.03432141617327 111.47849832910896 110.78003450042081 H 0.0 **** 0.06
15395 H 61.95711432438304 112.82263634280224 111.49254821519958 H 0.0 **** 0.06
15396 C 84.93948291153589 73.23015893121965 93.52255354430527 C 0.0 **** -0.24
15397 H 84.40225656178353 73.5760792173781 92.63854567659168 H 0.0 **** 0.06
15398 H 85.74394534897226 72.55993705747349 93.21887658281524 H 0.0 **** 0.06
15399 H 84.25276173860061 72.69964606352207 94.18125981283153 H 0.0 **** 0.06
15400 H 85.3604458209802 74.08691754773591 94.04978953665325 H 0.0 **** 0.06
15401 C 19.206599564055722 91.08840899118269 13.879362280447936 C 0.0 **** -0.24
15402 H 18.431961665347217 90.70139356155778 13.217787627342545 H 0.0 **** 0.06
15403 H 19.588113595856612 92.02873094178125 13.481214652008134 H 0.0 **** 0.06
15404 H 20.02021129438907 90.3657667818706 13.948391772724392 H 0.0 **** 0.06
15405 H 18.786811374518095 91.25707566886956 14.87030589112311 H 0.0 **** 0.06
15406 C 144.51690262216584 39.2685968729306 53.26507409224277 C 0.0 **** -0.24
15407 H 145.23900607487064 40.0818285079736 53.19280539752242 H 0.0 **** 0.06
15408 H 143.75507179097326 39.39049419542924 52.49530810589209 H 0.0 **** 0.06
15409 H 144.04751280664016 39.28715760489327 54.24844713635872 H 0.0 **** 0.06
15410 H 145.02799340195452 38.31594203096141 53.12355079497388 H 0.0 **** 0.06
15411 C 25.59744434572906 33.199133282291584 11.871896919625044 C 0.0 **** -0.24
15412 H 26.252766500588052 32.44130273980583 11.441782263083262 H 0.0 **** 0.06
15413 H 24.77374155718013 33.39807216881337 11.187131370542751 H 0.0 **** 0.06
15414 H 26.163770051034476 34.11618606984936 12.03648810206412 H 0.0 **** 0.06
15415 H 25.202349472932355 32.84003599582357 12.822170056819566 H 0.0 **** 0.06
15416 C 109.92653555528284 133.37073426894787 83.28376074318822 C 0.0 **** -0.24
15417 H 110.91049232987666 133.1421191185311 82.87439778446686 H 0.0 **** 0.06
15418 H 109.76014170924373 132.77654988236725 84.1821447649821 H 0.0 **** 0.06
15419 H 109.16119672169509 133.1347544117946 82.54365273380392 H 0.0 **** 0.06
15420 H 109.87554023303608 134.43099442674776 83.53333189343961 H 0.0 **** 0.06
15421 C 24.64732119206488 6.639338878913918 27.197943389022896 C 0.0 **** -0.24
15422 H 24.68036316890118 7.308491394357134 28.05826950299695 H 0.0 **** 0.06
15423 H 24.65139891844896 7.228283438594474 26.279991006744154 H 0.0 **** 0.06
15424 H 23.739387661155035 6.03905878366777 27.23985181679697 H 0.0 **** 0.06
15425 H 25.517818258028456 5.9837008333916515 27.2140511756852 H 0.0 **** 0.06
15426 C 16.273876088661694 76.06971361008505 139.48435389704352 C 0.0 **** -0.24
15427 H 16.996525817961924 76.88216273807811 139.5562539656741 H 0.0 **** 0.06
15428 H 15.334587167403924 76.4528793451494 139.08399626202163 H 0.0 **** 0.06
15429 H 16.10245084432944 75.64744468197193 140.47424842595618 H 0.0 **** 0.06
15430 H 16.662059676279625 75.29594356772927 138.8220191784055 H 0.0 **** 0.06
15431 C 130.67921460053827 19.2220541190801 54.86127713908262 C 0.0 **** -0.24
15432 H 130.3220077707225 18.559104582819273 54.07234996161638 H 0.0 **** 0.06
15433 H 131.6650036045361 18.894482973912332 55.191928087567774 H 0.0 **** 0.06
15434 H 129.98501545901243 19.194449429971286 55.70060446501665 H 0.0 **** 0.06
15435 H 130.74445214401328 20.24032116919107 54.477426719735575 H 0.0 **** 0.06
15436 C 85.14358275147718 161.10215576467937 61.84527737608067 C 0.0 **** -0.24
15437 H 85.42333516471324 162.01046329008952 62.380214683539464 H 0.0 **** 0.06
15438 H 84.06132493199321 160.97922615870584 61.87980511082043 H 0.0 **** 0.06
15439 H 85.62268373714265 160.2429793989647 62.315612468573704 H 0.0 **** 0.06
15440 H 85.46932277696897 161.17749815821523 60.807749150038944 H 0.0 **** 0.06
15441 C 109.26138459471275 117.17357340772932 118.03999171042196 C 0.0 **** -0.24
15442 H 109.36120235208466 116.4131906379155 117.26489407829433 H 0.0 **** 0.06
15443 H 108.20861834821798 117.29684031626257 118.29477272452755 H 0.0 **** 0.06
15444 H 109.66012515842158 118.11899061872097 117.67200105887645 H 0.0 **** 0.06
15445 H 109.81711048014546 116.86489678060502 118.9250500791621 H 0.0 **** 0.06
15446 C 21.84601878533875 47.9208271164361 99.21417921470402 C 0.0 **** -0.24
15447 H 21.966632345456084 46.883432608330736 99.52283241197932 H 0.0 **** 0.06
15448 H 22.7292781530655 48.49119118439279 99.50147100382469 H 0.0 **** 0.06
15449 H 20.96597283303543 48.34445804901429 99.69930275208287 H 0.0 **** 0.06
15450 H 21.720407633265644 47.965595597698155 98.13213970884189 H 0.0 **** 0.06
15451 C 65.80116066411199 113.95979262593264 42.82365388886359 C 0.0 **** -0.24
15452 H 66.08523437544949 112.91786974044382 42.67724121135922 H 0.0 **** 0.06
15453 H 65.0045568427999 114.01740833657445 43.565595022556366 H 0.0 **** 0.06
15454 H 65.44921512076348 114.37735532307099 41.880206703875245 H 0.0 **** 0.06
15455 H 66.66476300917014 114.52603924360429 43.17256736809367 H 0.0 **** 0.06
15456 C 111.18912541139628 5.205249285338937 125.22097892892978 C 0.0 **** -0.24
15457 H 111.42468166141117 6.133173843636712 125.7413721457259 H 0.0 **** 0.06
15458 H 112.00355732109426 4.493573353520787 125.36225503412612 H 0.0 **** 0.06
15459 H 111.06376777889972 5.408003181381872 124.15674623955277 H 0.0 **** 0.06
15460 H 110.26634514193901 4.787178268289296 125.62270027809708 H 0.0 **** 0.06
15461 C 112.78732357476147 118.67409303993276 140.2765381290237 C 0.0 **** -0.24
15462 H 112.70782456820726 119.69275298227609 139.89717988190915 H 0.0 **** 0.06
15463 H 113.49769763366044 118.64862678343772 141.10241039473755 H 0.0 **** 0.06
15464 H 113.13149677720583 118.01550937982105 139.47927517577688 H 0.0 **** 0.06
15465 H 111.81027857706351 118.33957426667115 140.6272176989707 H 0.0 **** 0.06
15466 C 67.06146365478565 67.35178618098146 17.117633111971656 C 0.0 **** -0.24
15467 H 66.78340933449141 66.38593995474238 17.538084873112496 H 0.0 **** 0.06
15468 H 68.00456224101862 67.68065486781617 17.55346253079415 H 0.0 **** 0.06
15469 H 66.28324202407063 68.08233962560465 17.340432663905233 H 0.0 **** 0.06
15470 H 67.17304630789793 67.25819825036076 16.036984929597963 H 0.0 **** 0.06
15471 C 127.93072422211628 153.2450709034485 143.9813959066276 C 0.0 **** -0.24
15472 H 128.74863896100112 152.5385741251497 143.84181215722668 H 0.0 **** 0.06
15473 H 126.99573435315563 152.78592147918093 143.6604884368856 H 0.0 **** 0.06
15474 H 128.11954074943577 154.14014287663124 143.38858536219146 H 0.0 **** 0.06
15475 H 127.86047859809688 153.51559653119696 145.03556967415318 H 0.0 **** 0.06
15476 C 64.96145803966836 154.12712399982763 83.59992111961215 C 0.0 **** -0.24
15477 H 64.25383665801353 154.9213151603367 83.3612367111711 H 0.0 **** 0.06
15478 H 64.70629069499661 153.69168614713072 84.56618835346187 H 0.0 **** 0.06
15479 H 65.96904276724196 154.53912990290098 83.64078631934446 H 0.0 **** 0.06
15480 H 64.91521166958853 153.35637453494672 82.83052629681367 H 0.0 **** 0.06
15481 C 26.488208765257887 130.03208447433943 2.5693793870945854 C 0.0 **** -0.24
15482 H 26.329294513903136 129.1993777716171 1.8845723710981588 H 0.0 **** 0.06
15483 H 27.323454057608103 129.80369976789956 3.232115089213522 H 0.0 **** 0.06
15484 H 25.5874355758881 130.1916413717617 3.1629357413071943 H 0.0 **** 0.06
15485 H 26.71195476253301 130.9336040789364 1.9994802981977386 H 0.0 **** 0.06
15486 C 58.34199773721457 67.70069368291006 2.3268221443385073 C 0.0 **** -0.24
15487 H 57.80082022846875 68.63260591695132 2.162674791994391 H 0.0 **** 0.06
15488 H 59.37133698708419 67.92347989630126 2.606673621426694 H 0.0 **** 0.06
15489 H 58.332671363497084 67.10929213893333 1.4109367223839229 H 0.0 **** 0.06
15490 H 57.860819334797384 67.13807539845568 3.126780183247689 H 0.0 **** 0.06
15491 C 138.92287861122307 9.774219100172957 26.126034562751755 C 0.0 **** -0.24
15492 H 139.48415756382474 8.971453953491107 26.603715312568085 H 0.0 **** 0.06
15493 H 138.30256085886685 10.275365604331256 26.869136120135977 H 0.0 **** 0.06
15494 H 138.2876342114034 9.358798961727018 25.343607235132538 H 0.0 **** 0.06
15495 H 139.61683284140648 10.492121286462066 25.688062128035625 H 0.0 **** 0.06
15496 C 118.79881828697245 12.939217977377893 73.06738076910888 C 0.0 **** -0.24
15497 H 119.52218773457744 13.6827434499981 72.73512586546778 H 0.0 **** 0.06
15498 H 117.80882162891396 13.393564018082486 73.12079599827241 H 0.0 **** 0.06
15499 H 119.08346665070934 12.570939826335717 74.05327345320858 H 0.0 **** 0.06
15500 H 118.78033180288944 12.1091632704603 72.36158103070048 H 0.0 **** 0.06
15501 C 22.312636069312447 77.73331127969755 71.82853565307107 C 0.0 **** -0.24
15502 H 22.261332552551494 78.63253452832839 71.21439693648381 H 0.0 **** 0.06
15503 H 22.64185931988493 77.99865014184394 72.83335016618628 H 0.0 **** 0.06
15504 H 23.01942197834464 77.03161347897486 71.38607919324869 H 0.0 **** 0.06
15505 H 21.325594933242485 77.27201748314604 71.87927745624569 H 0.0 **** 0.06
15506 C 47.890713409820805 149.0702982121203 141.44805833011026 C 0.0 **** -0.24
15507 H 48.42992325880705 148.13196025854398 141.31481979975948 H 0.0 **** 0.06
15508 H 48.22655145214448 149.79136090599556 140.70342873812274 H 0.0 **** 0.06
15509 H 48.08403059869964 149.46073261876612 142.44692132245075 H 0.0 **** 0.06
15510 H 46.821158418246156 148.89329804794386 141.32797516761678 H 0.0 **** 0.06
15511 C 60.69166451731667 110.65918191302504 74.89438674439593 C 0.0 **** -0.24
15512 H 61.42048609332414 111.20108895023827 74.29181498577874 H 0.0 **** 0.06
15513 H 60.75575360405338 109.59377955236187 74.67154761579233 H 0.0 **** 0.06
15514 H 59.68874380541001 111.0190457725802 74.66318353207016 H 0.0 **** 0.06
15515 H 60.90102057479504 110.82244693686826 75.95166269494217 H 0.0 **** 0.06
15516 C 77.23595451593462 134.94461970688042 45.06063489219892 C 0.0 **** -0.24
15517 H 77.78602951217174 135.10135104314148 44.13208081159166 H 0.0 **** 0.06
15518 H 77.44394773729468 133.94366937276533 45.44061008602108 H 0.0 **** 0.06
15519 H 76.16776669268857 135.04705350926653 44.87018296419927 H 0.0 **** 0.06
15520 H 77.54714554129849 135.68554967455975 45.796184174599205 H 0.0 **** 0.06
15521 C 47.75453761713298 76.09525032535223 102.76006542629261 C 0.0 **** -0.24
15522 H 47.728515171443036 77.1848663531205 102.78793330761016 H 0.0 **** 0.06
15523 H 48.393423998555946 75.76871728930224 101.94037940034553 H 0.0 **** 0.06
15524 H 46.745224053290855 75.71254476466937 102.60969112613418 H 0.0 **** 0.06
15525 H 48.14969126965684 75.71791697606318 103.70249099247042 H 0.0 **** 0.06
15526 C 83.43105048566439 78.2512297462601 109.89345461173 C 0.0 **** -0.24
15527 H 82.67395384678727 78.61728449133349 110.58718976992239 H 0.0 **** 0.06
15528 H 83.1063223610765 78.43937210848732 108.87023863065195 H 0.0 **** 0.06
15529 H 83.56981278593135 77.17978829514726 110.03981414743083 H 0.0 **** 0.06
15530 H 84.37256029486853 78.76897739932457 110.07810432826295 H 0.0 **** 0.06
15531 C 66.11005685073002 113.71956234465986 60.562652184456084 C 0.0 **** -0.24
15532 H 65.82198517329499 114.73723006112587 60.2967875194675 H 0.0 **** 0.06
15533 H 66.69795831274263 113.28535876257229 59.752586727519656 H 0.0 **** 0.06
15534 H 65.21486312656975 113.11868238850056 60.72422985465357 H 0.0 **** 0.06
15535 H 66.70590691130161 113.73729492289795 61.47462481837334 H 0.0 **** 0.06
15536 C 147.2440381938648 158.15166145040263 107.55558554220607 C 0.0 **** -0.24
15537 H 148.26377562207443 157.774703691794 107.6362223362643 H 0.0 **** 0.06
15538 H 146.60959942302617 157.6374389787813 108.27754991368616 H 0.0 **** 0.06
15539 H 146.86841531230067 157.97109802221286 106.54840226419464 H 0.0 **** 0.06
15540 H 147.23495823159874 159.22128527392488 107.76055682961663 H 0.0 **** 0.06
15541 C 90.12772758011033 137.55325099347732 94.42769050518726 C 0.0 **** -0.24
15542 H 89.68831570049923 136.76016032794274 93.82231354334571 H 0.0 **** 0.06
15543 H 91.21406474434075 137.45695248656975 94.42027026452958 H 0.0 **** 0.06
15544 H 89.76198326537245 137.4741301234125 95.45091472661178 H 0.0 **** 0.06
15545 H 89.8455818007725 138.52322151774533 94.01554991781622 H 0.0 **** 0.06
15546 C 148.25157218486282 128.79222353956368 108.01857539515967 C 0.0 **** -0.24
15547 H 149.21397023965784 128.33416454220338 107.79013109478859 H 0.0 **** 0.06
15548 H 147.9555699717053 129.44423731634032 107.19601255972921 H 0.0 **** 0.06
15549 H 148.33655195389252 129.37802764423625 108.93456878260395 H 0.0 **** 0.06
15550 H 147.5008338672581 128.0137269786096 108.15356773754203 H 0.0 **** 0.06
15551 C 24.507034002870625 160.38086831393224 80.60385435599038 C 0.0 **** -0.24
15552 H 24.482481038364654 161.0242193574491 81.48282159770372 H 0.0 **** 0.06
15553 H 24.629181531907477 159.34289216109676 80.91673197858788 H 0.0 **** 0.06
15554 H 25.342292896273307 160.6690839508803 79.96603685352068 H 0.0 **** 0.06
15555 H 23.574122418122556 160.48616558540937 80.05069859658546 H 0.0 **** 0.06
15556 C 137.3551385440472 63.60848112910526 74.6719801838379 C 0.0 **** -0.24
15557 H 136.91142485434372 63.206167040904575 73.7619937262292 H 0.0 **** 0.06
15558 H 137.61843793064668 64.6549173730194 74.51652443768134 H 0.0 **** 0.06
15559 H 138.2520545330691 63.040725255072445 74.92181386018638 H 0.0 **** 0.06
15560 H 136.6378252076417 63.532845487573866 75.48978132830712 H 0.0 **** 0.06
15561 C 109.80828835123924 129.4915104486763 119.61173042586279 C 0.0 **** -0.24
15562 H 110.71264513959716 128.91607980780168 119.41381318474706 H 0.0 **** 0.06
15563 H 109.46961814420115 129.29809747178763 120.62983787777665 H 0.0 **** 0.06
15564 H 109.02942892436272 129.19647973562923 118.90810215239665 H 0.0 **** 0.06
15565 H 110.02111087596319 130.55402379279025 119.49532676324935 H 0.0 **** 0.06
15566 C 100.77255855045553 26.345952158349967 59.81189072508694 C 0.0 **** -0.24
15567 H 100.38859857639409 26.378099659676288 58.79230299966075 H 0.0 **** 0.06
15568 H 101.42065157307934 25.47709883772675 59.92808541999753 H 0.0 **** 0.06
15569 H 99.93891826429223 26.27401182581778 60.51051889592499 H 0.0 **** 0.06
15570 H 101.34063988420064 27.253396576510575 60.01593256671208 H 0.0 **** 0.06
15571 C 6.021620577584315 146.0404206054418 121.02073700937666 C 0.0 **** -0.24
15572 H 5.510369000784181 145.63409490483332 120.14794029152125 H 0.0 **** 0.06
15573 H 5.2850684923521385 146.34616710681732 121.76389712928088 H 0.0 **** 0.06
15574 H 6.618717057745357 146.90202657724566 120.72336052226294 H 0.0 **** 0.06
15575 H 6.673252718033609 145.27658206890288 121.44726151830929 H 0.0 **** 0.06
15576 C 156.89316209442518 76.00910234241411 112.9240197257119 C 0.0 **** -0.24
15577 H 155.93414213123162 76.16074761889308 112.4302047502915 H 0.0 **** 0.06
15578 H 157.3886764429378 76.97082498352569 113.0584070765 H 0.0 **** 0.06
15579 H 157.51909320940004 75.3595883593182 112.31226186916089 H 0.0 **** 0.06
15580 H 156.73106986183208 75.54546607999043 113.89689092396799 H 0.0 **** 0.06
15581 C 6.674973251406328 152.73508941818346 136.9670332910991 C 0.0 **** -0.24
15582 H 6.349436445740281 153.39435277056674 137.77176211433414 H 0.0 **** 0.06
15583 H 7.513258762651333 153.19000520871606 136.44077590514482 H 0.0 **** 0.06
15584 H 5.8507128216252795 152.57778392069235 136.2721293061751 H 0.0 **** 0.06
15585 H 6.984098751177044 151.77681482469632 137.3859845090288 H 0.0 **** 0.06
15586 C 51.014209114849905 59.84572913755699 124.03101928813646 C 0.0 **** -0.24
15587 H 50.31871897938174 59.597209726975564 123.22972507687689 H 0.0 **** 0.06
15588 H 51.72487468481734 60.59125058953424 123.67686534843892 H 0.0 **** 0.06
15589 H 51.550264413628554 58.947807428906856 124.33744572302527 H 0.0 **** 0.06
15590 H 50.45966565890342 60.24574492790384 124.880498428755 H 0.0 **** 0.06
15591 C 31.89049159326099 75.64504833296995 38.529585563630974 C 0.0 **** -0.24
15592 H 30.935439298941347 75.18922812867555 38.78924089037926 H 0.0 **** 0.06
15593 H 31.99372211074335 76.5963085957334 39.05219846626471 H 0.0 **** 0.06
15594 H 31.930979215494283 75.81530330828784 37.45385379252643 H 0.0 **** 0.06
15595 H 32.70263093528031 74.97904530959532 38.82355590493923 H 0.0 **** 0.06
15596 C 47.478060750822664 51.831598183501 133.51681548902803 C 0.0 **** -0.24
15597 H 47.64166709327604 52.03139127214541 132.45765990357404 H 0.0 **** 0.06
15598 H 47.850079740257556 50.835797361330606 133.76018246390151 H 0.0 **** 0.06
15599 H 46.41219175146736 51.88543741038268 133.73697554435734 H 0.0 **** 0.06
15600 H 48.010669492597756 52.57437775692591 134.11226183015282 H 0.0 **** 0.06
15601 C 156.4485076468793 47.30908796816567 122.40584154150127 C 0.0 **** -0.24
15602 H 155.9698439761139 46.33010406022527 122.44300978825186 H 0.0 **** 0.06
15603 H 156.37797601322504 47.708762436214556 121.39333795249922 H 0.0 **** 0.06
15604 H 157.49725450704256 47.21103424335445 122.6864860686037 H 0.0 **** 0.06
15605 H 155.94888876291407 47.98492705482113 123.09861589269377 H 0.0 **** 0.06
15606 C 95.80011013770124 75.79698477423342 11.617466471989701 C 0.0 **** -0.24
15607 H 94.86905218922824 76.3569365217677 11.713456257908952 H 0.0 **** 0.06
15608 H 96.28503941417156 75.72952885661049 12.591563574994254 H 0.0 **** 0.06
15609 H 96.45991721663981 76.30921374324905 10.917081604477438 H 0.0 **** 0.06
15610 H 95.58407611860754 74.79459418672495 11.24771078125653 H 0.0 **** 0.06
15611 C 159.15752245990086 140.78313266588236 119.84855162071125 C 0.0 **** -0.24
15612 H 160.1142010131708 140.60078793549212 120.33963048137201 H 0.0 **** 0.06
15613 H 158.59602311873277 139.85007795056686 119.79034269551698 H 0.0 **** 0.06
15614 H 159.3329042800933 141.1658497927189 118.84384637514353 H 0.0 **** 0.06
15615 H 158.58885079206317 141.51485001144525 120.42273201722216 H 0.0 **** 0.06
15616 C 129.91853504815919 59.258405783976315 95.48267293637164 C 0.0 **** -0.24
15617 H 130.36333381767227 59.304321294329355 94.48827779519871 H 0.0 **** 0.06
15618 H 129.58796295835722 60.2548808834938 95.77805805340378 H 0.0 **** 0.06
15619 H 130.65788312335056 58.89447139497058 96.19536431925906 H 0.0 **** 0.06
15620 H 129.0643497736578 58.58276621152474 95.4676900172786 H 0.0 **** 0.06
15621 C 145.44266835373472 148.21342474731222 7.103088539953845 C 0.0 **** -0.24
15622 H 145.83626890695876 147.57864310186307 7.898027389272144 H 0.0 **** 0.06
15623 H 145.51890871213365 149.2590291927352 7.4025975191811355 H 0.0 **** 0.06
15624 H 144.39746386219858 147.9622232612533 6.922677231543396 H 0.0 **** 0.06
15625 H 146.01785201571312 148.05258359509205 6.192130973541481 H 0.0 **** 0.06
15626 C 79.49680701625488 125.15408144595736 140.9874128759588 C 0.0 **** -0.24
15627 H 79.43378073611272 126.09118413217837 140.43282190256872 H 0.0 **** 0.06
15628 H 80.53030046319849 124.97866548746822 141.28707503553838 H 0.0 **** 0.06
15629 H 79.15832124266329 124.33400025275884 140.35414825956082 H 0.0 **** 0.06
15630 H 78.86563545769963 125.2136822251264 141.87390656325022 H 0.0 **** 0.06
15631 C 131.46584733201627 72.55345184033972 16.75575183478969 C 0.0 **** -0.24
15632 H 130.82203303970195 71.69193499631334 16.578323700057467 H 0.0 **** 0.06
15633 H 131.3914223114022 72.85400546035906 17.800754364768352 H 0.0 **** 0.06
15634 H 131.15170463138944 73.37936900019174 16.11675488957792 H 0.0 **** 0.06
15635 H 132.49772727229114 72.28734946490722 16.525069820663077 H 0.0 **** 0.06
15636 C 22.241707313048664 81.32686758194268 134.57524905420726 C 0.0 **** -0.24
15637 H 21.901822332888912 82.06766095546735 133.85281623609836 H 0.0 **** 0.06
15638 H 23.32393755965552 81.39803868395512 134.68699539095803 H 0.0 **** 0.06
15639 H 21.977278814423926 80.32981008061367 134.22381236358092 H 0.0 **** 0.06
15640 H 21.764417049542715 81.5116602886585 135.53809148342958 H 0.0 **** 0.06
15641 C 78.14681985956807 121.35270631062377 118.17913601178981 C 0.0 **** -0.24
15642 H 78.83640210310834 120.57120537827007 118.49864107518897 H 0.0 **** 0.06
15643 H 78.57154129989797 121.88626620377039 117.32913461261228 H 0.0 **** 0.06
15644 H 77.98060883726012 122.04946237397343 119.00043664243765 H 0.0 **** 0.06
15645 H 77.1981737471664 120.90161196852034 117.88762561290349 H 0.0 **** 0.06
15646 C 50.50257515848389 129.62506421101196 40.35695551485979 C 0.0 **** -0.24
15647 H 50.68229574540507 128.550832958469 40.31998838592793 H 0.0 **** 0.06
15648 H 50.72255896798964 129.99519314061334 41.35826343554574 H 0.0 **** 0.06
15649 H 49.45905534155014 129.82780199716075 40.11611192283091 H 0.0 **** 0.06
15650 H 51.14682209940162 130.12573719678377 39.6340376056493 H 0.0 **** 0.06
15651 C 49.198755868853354 58.24122602368851 156.9732381387646 C 0.0 **** -0.24
15652 H 49.5413342669775 59.2184191203458 156.6327567858858 H 0.0 **** 0.06
15653 H 48.45126478175766 57.85650423040033 156.2776145701894 H 0.0 **** 0.06
15654 H 48.757609796931746 58.336593609774354 157.96465327763988 H 0.0 **** 0.06
15655 H 50.04323204861956 57.554281160510016 157.0146573592336 H 0.0 **** 0.06
15656 C 118.4478647753578 73.82671812633555 24.316534245909615 C 0.0 **** -0.24
15657 H 118.83307057463475 74.68827387998226 23.772964588970453 H 0.0 **** 0.06
15658 H 118.85419680810554 73.82399538426318 25.32824010169874 H 0.0 **** 0.06
15659 H 118.74462171539909 72.91123093517317 23.8042653786989 H 0.0 **** 0.06
15660 H 117.36011995162553 73.88132539718995 24.3613795659151 H 0.0 **** 0.06
15661 C 148.53021548484804 46.534116228836965 79.32221198954963 C 0.0 **** -0.24
15662 H 148.38031347299028 46.90883972708133 80.33455409142293 H 0.0 **** 0.06
15663 H 148.2938333659917 47.32079601174631 78.6050932434015 H 0.0 **** 0.06
15664 H 147.87875560491693 45.67776088439365 79.15121382853371 H 0.0 **** 0.06
15665 H 149.57039067279345 46.23050400379165 79.19815517058275 H 0.0 **** 0.06
15666 C 3.376712293665321 36.95936084164009 41.50107260353997 C 0.0 **** -0.24
15667 H 2.885454352903139 36.98025817834008 40.52864277501919 H 0.0 **** 0.06
15668 H 3.0279900684329846 36.09453005992373 42.06559132609418 H 0.0 **** 0.06
15669 H 3.137678167406193 37.87222975799932 42.047785436710754 H 0.0 **** 0.06
15670 H 4.455525439313021 36.89307681429153 41.3608817556032 H 0.0 **** 0.06
15671 C 65.22566761504352 143.25512620014354 67.98374394649841 C 0.0 **** -0.24
15672 H 64.3875095663576 143.53411204543426 67.34460400737566 H 0.0 **** 0.06
15673 H 65.94581853296626 142.67786851923233 67.4043761330106 H 0.0 **** 0.06
15674 H 64.86260384231981 142.6540714380492 68.81637692279935 H 0.0 **** 0.06
15675 H 65.7051715486956 144.15608938315012 68.3666410363503 H 0.0 **** 0.06
15676 C 126.20432457159558 56.120416576944606 9.018033960364527 C 0.0 **** -0.24
15677 H 126.58365793834204 55.13329421866439 9.285005020781064 H 0.0 **** 0.06
15678 H 126.19909953879792 56.7587166434344 9.901696557993084 H 0.0 **** 0.06
15679 H 125.1894155728524 56.027250844807426 8.630841834024004 H 0.0 **** 0.06
15680 H 126.84573376253263 56.56051279276737 8.254366865479746 H 0.0 **** 0.06
15681 C 32.80588153456978 131.3743339535845 18.041005581139416 C 0.0 **** -0.24
15682 H 32.54091767341748 132.4313546764914 18.03922192816566 H 0.0 **** 0.06
15683 H 31.948524270837595 130.7841002400811 17.71660373322527 H 0.0 **** 0.06
15684 H 33.09456717648703 131.0734932006422 19.04836912685252 H 0.0 **** 0.06
15685 H 33.64075007412353 131.2090722056201 17.359722275057692 H 0.0 **** 0.06
15686 C 96.2820615890866 144.00361478332053 76.43825803843289 C 0.0 **** -0.24
15687 H 95.19826513036315 144.10715525514703 76.50267468526772 H 0.0 **** 0.06
15688 H 96.53477020725938 143.3582587193531 75.59607290037027 H 0.0 **** 0.06
15689 H 96.66084695238305 143.5635360060333 77.35985563260374 H 0.0 **** 0.06
15690 H 96.7319792675911 144.98486685926602 76.29161813195225 H 0.0 **** 0.06
15691 C 18.09655613109672 59.588882944962904 7.5900073297041 C 0.0 **** -0.24
15692 H 17.296960677898312 59.769007184910635 8.308196169734188 H 0.0 **** 0.06
15693 H 19.020533260240768 59.365009709703486 8.123522940554508 H 0.0 **** 0.06
15694 H 18.239371160875606 60.477884354238725 6.974437460338692 H 0.0 **** 0.06
15695 H 17.830037800463742 58.74580748093395 6.952977830709649 H 0.0 **** 0.06
15696 C 114.60236352657444 74.81863137070631 118.33324028553221 C 0.0 **** -0.24
15697 H 114.3143422633567 74.70299048559012 117.28827722455685 H 0.0 **** 0.06
15698 H 114.08253484998727 75.6765297311189 118.75989988118587 H 0.0 **** 0.06
15699 H 115.67899950506478 74.97619188560012 118.39784300321352 H 0.0 **** 0.06
15700 H 114.33255629979584 73.91769412459381 118.88529646880511 H 0.0 **** 0.06
15701 C 2.738508069554058 130.07214989935395 61.452860391347784 C 0.0 **** -0.24
15702 H 2.6667291504966784 129.20877334251608 60.789521383850655 H 0.0 **** 0.06
15703 H 2.802489214539719 130.98249512463897 60.855898187770435 H 0.0 **** 0.06
15704 H 3.629791658671593 129.9795751487366 62.07356026965272 H 0.0 **** 0.06
15705 H 1.8543282031444335 130.1147883321996 62.08903944651733 H 0.0 **** 0.06
15706 C 97.93928351108252 133.37269315641382 120.32252549028453 C 0.0 **** -0.24
15707 H 97.07061197960036 132.97923480075514 120.84996186859934 H 0.0 **** 0.06
15708 H 98.82700313099497 132.81531958994861 120.62050941894299 H 0.0 **** 0.06
15709 H 98.06951591483914 134.42552120435974 120.57204796482264 H 0.0 **** 0.06
15710 H 97.78812728298317 133.26948219858483 119.24765983776308 H 0.0 **** 0.06
15711 C 140.8768318574102 150.51913919587673 75.87326938587468 C 0.0 **** -0.24
15712 H 141.2527814950992 150.07798308617845 76.79661386404715 H 0.0 **** 0.06
15713 H 140.74706261455023 149.7379898742463 75.12415888680907 H 0.0 **** 0.06
15714 H 141.5903852907312 151.2581418136794 75.50768148973252 H 0.0 **** 0.06
15715 H 139.9194037075738 151.00269935082656 76.06540930799069 H 0.0 **** 0.06
15716 C 119.00157068501312 100.51066550924844 77.0862828484183 C 0.0 **** -0.24
15717 H 119.8430732635039 100.161609796524 76.48788885288138 H 0.0 **** 0.06
15718 H 118.35587844310544 99.66696034403577 77.33181901131707 H 0.0 **** 0.06
15719 H 118.4349010767051 101.2490251374214 76.51847523284869 H 0.0 **** 0.06
15720 H 119.37157539354234 100.96425823594424 78.00504667545101 H 0.0 **** 0.06
15721 C 23.387512885382733 139.9025740735527 152.899851823796 C 0.0 **** -0.24
15722 H 22.518696658257028 139.31824252662483 152.59674150654166 H 0.0 **** 0.06
15723 H 23.560697414588617 139.77112854708997 153.96833817065502 H 0.0 **** 0.06
15724 H 23.208140095726122 140.9567368484083 152.68759699128015 H 0.0 **** 0.06
15725 H 24.263665663378077 139.56518109425986 152.34508865146273 H 0.0 **** 0.06
15726 C 82.08998842031474 26.25461768216565 93.76272402621157 C 0.0 **** -0.24
15727 H 82.48741363918742 27.13107965044224 93.25132842976319 H 0.0 **** 0.06
15728 H 82.75911745767192 25.973807765811856 94.57658028116913 H 0.0 **** 0.06
15729 H 82.00863831938753 25.427364405379798 93.05724542976384 H 0.0 **** 0.06
15730 H 81.10430607872719 26.486085351319133 94.16661002574307 H 0.0 **** 0.06
15731 C 5.085564566549152 75.26942762949062 13.990371470540168 C 0.0 **** -0.24
15732 H 4.253498455168 75.19819937369573 13.290351215357596 H 0.0 **** 0.06
15733 H 4.921253436704575 76.1098342508713 14.666436176719316 H 0.0 **** 0.06
15734 H 6.012670582310136 75.42252169386967 13.438150053755074 H 0.0 **** 0.06
15735 H 5.154391492550019 74.34685558347508 14.567392745743724 H 0.0 **** 0.06
15736 C 107.21859037837183 81.48187073477425 64.69597711863258 C 0.0 **** -0.24
15737 H 107.25017384320955 82.15043516092015 65.55625030027238 H 0.0 **** 0.06
15738 H 106.23921148594661 81.54773757142914 64.22087456626684 H 0.0 **** 0.06
15739 H 107.39392641843045 80.4576763489618 65.02406851849128 H 0.0 **** 0.06
15740 H 107.98906029923688 81.77178413234168 63.981705341584814 H 0.0 **** 0.06
15741 C 118.17102158172767 152.74121145460808 24.16933049543801 C 0.0 **** -0.24
15742 H 118.20824145542548 153.290294594419 23.228813497825605 H 0.0 **** 0.06
15743 H 119.18061090003653 152.63095493285869 24.566015237153138 H 0.0 **** 0.06
15744 H 117.73788493990699 151.75560659118852 23.997503337792644 H 0.0 **** 0.06
15745 H 117.5563718647897 153.28819864280203 24.884950944767 H 0.0 **** 0.06
15746 C 42.85067067537838 4.766607976264616 119.07507002955003 C 0.0 **** -0.24
15747 H 43.85110676669808 5.165206318200177 119.24862376292526 H 0.0 **** 0.06
15748 H 42.363605216017845 5.342809852157622 118.28804492896421 H 0.0 **** 0.06
15749 H 42.267670960514195 4.8378500445300645 119.99274574875801 H 0.0 **** 0.06
15750 H 42.92362142117918 3.7230656075914013 118.76955512731752 H 0.0 **** 0.06
15751 C 112.43570119370557 53.79001175333923 91.9253463579629 C 0.0 **** -0.24
15752 H 112.18750766883676 52.731555226068565 92.0032861235643 H 0.0 **** 0.06
15753 H 112.16934783221538 54.15312676295301 90.93304589285754 H 0.0 **** 0.06
15754 H 113.50517294072137 53.92568349168985 92.08747972458178 H 0.0 **** 0.06
15755 H 111.88036062727798 54.350416517870144 92.67810942922813 H 0.0 **** 0.06
15756 C 152.89031008330755 91.58740092603635 143.41704726930564 C 0.0 **** -0.24
15757 H 153.05268893591506 91.29421630106381 144.45502645444648 H 0.0 **** 0.06
15758 H 153.39548087772516 92.53341606629598 143.22398857874532 H 0.0 **** 0.06
15759 H 151.8223637809407 91.70153470921636 143.23528372901026 H 0.0 **** 0.06
15760 H 153.291593090726 90.81939036101816 142.75565662677113 H 0.0 **** 0.06
15761 C 5.720813823771891 97.29831206667794 118.8233142171647 C 0.0 **** -0.24
15762 H 5.821910946073103 97.56076593019156 117.76983843586106 H 0.0 **** 0.06
15763 H 6.24347995058406 98.03593558674126 119.43272748831944 H 0.0 **** 0.06
15764 H 6.154194930791448 96.31208244080926 118.99506069678168 H 0.0 **** 0.06
15765 H 4.6656649813537 97.28366896998105 119.09445315722098 H 0.0 **** 0.06
15766 C 28.792133179700187 161.6619471834654 119.50559988839007 C 0.0 **** -0.24
15767 H 28.84747072469824 161.34342725824783 120.54700504375464 H 0.0 **** 0.06
15768 H 27.82149022904548 162.12206643992192 119.31851057561056 H 0.0 **** 0.06
15769 H 28.916637190677477 160.79672282180684 118.8545988088537 H 0.0 **** 0.06
15770 H 29.58265237392021 162.38540313781306 119.30471246076584 H 0.0 **** 0.06
15771 C 143.582370326804 27.027920216064423 130.9479631271385 C 0.0 **** -0.24
15772 H 144.14419541660607 26.62914433136187 131.79262650320652 H 0.0 **** 0.06
15773 H 142.54967060408984 26.682586867906437 131.00415957537473 H 0.0 **** 0.06
15774 H 144.03137330546562 26.680931904950384 130.01675943058285 H 0.0 **** 0.06
15775 H 143.60423062130963 28.11662989110137 130.97885301584768 H 0.0 **** 0.06
15776 C 70.60340536370295 160.1542500858599 135.06366139332454 C 0.0 **** -0.24
15777 H 70.54043009369026 159.14725546230173 134.65208177980668 H 0.0 **** 0.06
15778 H 70.21140036134017 160.86848680883915 134.33907264129365 H 0.0 **** 0.06
15779 H 71.64506795852071 160.3932361873616 135.28148376044584 H 0.0 **** 0.06
15780 H 70.01894739743568 160.20888074151654 135.98144633376634 H 0.0 **** 0.06
15781 C 23.32027590788246 21.22059132185285 66.10519523504763 C 0.0 **** -0.24
15782 H 24.07501337541646 21.985320575879257 66.28864925877974 H 0.0 **** 0.06
15783 H 23.757156708475634 20.234095560487447 66.26681576867429 H 0.0 **** 0.06
15784 H 22.967927219582435 21.297942761448837 65.07662097306019 H 0.0 **** 0.06
15785 H 22.48391701857352 21.36441888892142 66.78826716019421 H 0.0 **** 0.06
15786 C 65.5572749175959 66.10485858030793 57.08199567354882 C 0.0 **** -0.24
15787 H 64.7290957700331 65.69087621074407 56.507240301097966 H 0.0 **** 0.06
15788 H 66.379516626479 66.35130223668494 56.408396366657996 H 0.0 **** 0.06
15789 H 65.89428359670379 65.37121134034942 57.81381034352535 H 0.0 **** 0.06
15790 H 65.2269988757054 67.00650035869468 57.59649606688748 H 0.0 **** 0.06
15791 C 61.24863120096023 5.49691270583574 94.93224801531568 C 0.0 **** -0.24
15792 H 60.88365517345585 4.828413980926484 94.15279769866517 H 0.0 **** 0.06
15793 H 61.631339829517344 6.409999176736363 94.47654520555903 H 0.0 **** 0.06
15794 H 62.04650651516391 5.005719421959384 95.48851141758433 H 0.0 **** 0.06
15795 H 60.431034052985865 5.744458210835717 95.61073828242702 H 0.0 **** 0.06
15796 C 73.08924324330255 39.46713527484377 158.27813252891437 C 0.0 **** -0.24
15797 H 72.83128489329361 39.00429896168009 159.2311230421928 H 0.0 **** 0.06
15798 H 74.1735705313492 39.49200755101077 158.16898783569022 H 0.0 **** 0.06
15799 H 72.6981774795353 40.48414553080454 158.25051802818467 H 0.0 **** 0.06
15800 H 72.65527345327823 38.88837971624832 157.46393536397974 H 0.0 **** 0.06
15801 C 159.6795714162284 70.80217675226231 158.0914954334531 C 0.0 **** -0.24
15802 H 159.6211227089478 70.31697867334637 159.0660560748817 H 0.0 **** 0.06
15803 H 160.72294673148306 70.86761320206942 157.7805405751971 H 0.0 **** 0.06
15804 H 159.25650660146164 71.80353101937668 158.1582081839124 H 0.0 **** 0.06
15805 H 159.11846235227299 70.21801673557555 157.36209461809054 H 0.0 **** 0.06
15806 C 140.5134134494728 132.3400162656845 106.64048620940784 C 0.0 **** -0.24
15807 H 139.66188094615927 132.96227479204526 106.91605758424049 H 0.0 **** 0.06
15808 H 141.42402686795967 132.76294940269514 107.06470386347081 H 0.0 **** 0.06
15809 H 140.60096430292737 132.30458777019413 105.55369019159457 H 0.0 **** 0.06
15810 H 140.36627256505682 131.33169124602202 107.0261998880242 H 0.0 **** 0.06
15811 C 130.3859461288934 86.39174861232311 161.02513290299808 C 0.0 **** -0.24
15812 H 130.09128349803413 86.33217919059513 162.07286248364838 H 0.0 **** 0.06
15813 H 131.20842583151045 87.09898944232862 160.91918765032042 H 0.0 **** 0.06
15814 H 129.53859455526162 86.72642296713389 160.4277760541067 H 0.0 **** 0.06
15815 H 130.70593756411836 85.40738533791375 160.68201730846323 H 0.0 **** 0.06
15816 C 119.45485358452686 60.1455256614052 151.9478368303056 C 0.0 **** -0.24
15817 H 119.08926984735925 61.09885691588724 151.5659508354131 H 0.0 **** 0.06
15818 H 118.93241341335752 59.33011448055203 151.44742726402748 H 0.0 **** 0.06
15819 H 119.2727898050683 60.08996757248795 153.02108187896445 H 0.0 **** 0.06
15820 H 120.52494127232256 60.06316367669348 151.7568873428173 H 0.0 **** 0.06
15821 C 79.96160427160774 90.80996162937038 140.10872615991892 C 0.0 **** -0.24
15822 H 80.59534180062595 89.9379071091436 139.94964287016322 H 0.0 **** 0.06
15823 H 80.55658707069084 91.71731612666002 139.99866626523823 H 0.0 **** 0.06
15824 H 79.5371467483226 90.77225912305283 141.11235717316475 H 0.0 **** 0.06
15825 H 79.15614503220472 90.8119319369655 139.3736204402807 H 0.0 **** 0.06
15826 C 79.37153109337895 38.71171065468451 55.65961011742695 C 0.0 **** -0.24
15827 H 80.21426105848833 39.34400932985076 55.935690522868015 H 0.0 **** 0.06
15828 H 79.72945234152962 37.86657314867321 55.07155839010551 H 0.0 **** 0.06
15829 H 78.6600696427378 39.28968250914406 55.07054647983381 H 0.0 **** 0.06
15830 H 78.8814996301182 38.34404881071788 56.562022349305096 H 0.0 **** 0.06
15831 C 140.53962001586783 90.29230528052894 58.1583822297698 C 0.0 **** -0.24
15832 H 140.14994818437455 89.81588122379138 57.25808179329475 H 0.0 **** 0.06
15833 H 141.28699438748845 89.6443244140977 58.6165058026309 H 0.0 **** 0.06
15834 H 139.72454658973982 90.46143729333905 58.86141814723007 H 0.0 **** 0.06
15835 H 140.9969006395482 91.24598186331453 57.894984699487765 H 0.0 **** 0.06
15836 C 82.76325661257923 35.57780018418384 50.33931057528082 C 0.0 **** -0.24
15837 H 82.50266193304418 35.70117047280618 49.287518257442 H 0.0 **** 0.06
15838 H 83.73849637650713 35.09754340230282 50.41775594417959 H 0.0 **** 0.06
15839 H 82.01189211541998 34.957869780436795 50.829126421634555 H 0.0 **** 0.06
15840 H 82.79866000852913 36.554626548684155 50.82077571775454 H 0.0 **** 0.06
15841 C 58.40385853757002 77.19048791770311 41.44171030286384 C 0.0 **** -0.24
15842 H 57.792421812260486 78.00925280914569 41.061455044910105 H 0.0 **** 0.06
15843 H 58.97035872610938 76.74950260508471 40.62216511531341 H 0.0 **** 0.06
15844 H 57.75901131328396 76.4330585149113 41.88836189064858 H 0.0 **** 0.06
15845 H 59.09155313558797 77.57208769624022 42.19621318302646 H 0.0 **** 0.06
15846 C 101.93195440560979 89.72170286065204 84.30906588622238 C 0.0 **** -0.24
15847 H 101.27399091492083 90.25802388727378 84.99237082393812 H 0.0 **** 0.06
15848 H 101.96723108577203 90.24536798662325 83.35301134276277 H 0.0 **** 0.06
15849 H 101.55180338118396 88.71150546819996 84.15665759565343 H 0.0 **** 0.06
15850 H 102.93410420416987 89.67306246811066 84.73376780211925 H 0.0 **** 0.06
15851 C 60.469483230349624 29.18424548941349 18.689906860214997 C 0.0 **** -0.24
15852 H 60.34773373808372 28.312782929721585 19.333909928134894 H 0.0 **** 0.06
15853 H 59.530376817637205 29.736973747004072 18.645640466604185 H 0.0 **** 0.06
15854 H 60.74826693673151 28.858206185005244 17.688431529054867 H 0.0 **** 0.06
15855 H 61.2509188963233 29.828089726345937 19.09442605119311 H 0.0 **** 0.06
15856 C 107.55375079725778 151.67722651189217 29.272241375924573 C 0.0 **** -0.24
15857 H 107.87131685824713 151.26644043176208 28.31426255283617 H 0.0 **** 0.06
15858 H 108.41529828636894 151.76042817355494 29.934506620175988 H 0.0 **** 0.06
15859 H 106.81227922108476 151.01732447569526 29.721707765290155 H 0.0 **** 0.06
15860 H 107.11600867175443 152.6629164747486 29.117160884053433 H 0.0 **** 0.06
15861 C 149.06735282843644 112.17024787354708 114.55974132693711 C 0.0 **** -0.24
15862 H 149.12401192350362 112.5282039618277 115.58810219008532 H 0.0 **** 0.06
15863 H 150.07201020316313 111.96885071787725 114.18957303361563 H 0.0 **** 0.06
15864 H 148.59493001902064 112.9299678163064 113.93735548025765 H 0.0 **** 0.06
15865 H 148.4767221477022 111.25492537338039 114.52618590971616 H 0.0 **** 0.06
15866 C 21.230554667908052 134.24732556811927 33.46132424738269 C 0.0 **** -0.24
15867 H 21.092488678041917 134.10293007578736 34.53313794299038 H 0.0 **** 0.06
15868 H 21.544846031022985 133.3077416631169 33.00687526124244 H 0.0 **** 0.06
15869 H 21.994543695955144 135.00592381585295 33.29346032592096 H 0.0 **** 0.06
15870 H 20.290754857469892 134.57145801350555 33.015180428924936 H 0.0 **** 0.06
15871 C 108.60181543234182 79.69546297487695 61.60471359521772 C 0.0 **** -0.24
15872 H 108.32546654579389 79.69014175715563 62.65969268124448 H 0.0 **** 0.06
15873 H 108.8877231344284 78.68868990152075 61.29915404511485 H 0.0 **** 0.06
15874 H 109.44176746644834 80.37437104443644 61.45376226800538 H 0.0 **** 0.06
15875 H 107.75234779863365 80.02966990567894 61.00823446564988 H 0.0 **** 0.06
15876 C 121.76476889040137 85.8848674843463 157.6446900644819 C 0.0 **** -0.24
15877 H 122.37241731774918 86.78467245784037 157.73914240914212 H 0.0 **** 0.06
15878 H 120.7156869826907 86.16451356912447 157.54655707703807 H 0.0 **** 0.06
15879 H 121.89475392549852 85.26493698405564 158.53243324663163 H 0.0 **** 0.06
15880 H 122.07663797712877 85.32672978014939 156.76233366903443 H 0.0 **** 0.06
15881 C 48.134530641577726 106.05691208365201 14.807441065149852 C 0.0 **** -0.24
15882 H 48.22566387040155 106.46888279981243 15.812352858600903 H 0.0 **** 0.06
15883 H 47.41240239973229 106.64328890010705 14.23895720540591 H 0.0 **** 0.06
15884 H 47.79644999051749 105.02265339008775 14.869443290715559 H 0.0 **** 0.06
15885 H 49.1046399449051 106.09272107359541 14.310991133615417 H 0.0 **** 0.06
15886 C 136.90671368619184 139.24103309248 77.10653564237793 C 0.0 **** -0.24
15887 H 137.18752726840034 138.20466399109947 76.92378274979504 H 0.0 **** 0.06
15888 H 135.84468764102735 139.29308692925252 77.34840123259022 H 0.0 **** 0.06
15889 H 137.1055781772841 139.83483205287885 76.21384891522348 H 0.0 **** 0.06
15890 H 137.4885638523191 139.63345482393865 77.94116876932334 H 0.0 **** 0.06
15891 C 53.349642444900454 1.0523333959140757 87.60617747007555 C 0.0 **** -0.24
15892 H 53.349493980885995 0.9007530541561835 86.52668673869769 H 0.0 **** 0.06
15893 H 52.32398193040244 1.174719005194703 87.95619342513339 H 0.0 **** 0.06
15894 H 53.92682613508511 1.9444971481719904 87.84869072135359 H 0.0 **** 0.06
15895 H 53.79890403851826 0.18626795975544042 88.09322630486847 H 0.0 **** 0.06
15896 C 25.986596902884642 55.004684928548684 0.0756926112347287 C 0.0 **** -0.24
15897 H 24.92815517692953 54.75143186151041 0.1482798075516314 H 0.0 **** 0.06
15898 H 26.166093705203146 55.54824427059846 -0.8519495602744485 H 0.0 **** 0.06
15899 H 26.579758016537845 54.090295453159584 0.08301609584094649 H 0.0 **** 0.06
15900 H 26.269758274747062 55.62771301420881 0.923523059768911 H 0.0 **** 0.06
15901 C 62.768940842594006 13.456602530851 32.180534943280925 C 0.0 **** -0.24
15902 H 63.565638936184726 14.198536883898441 32.22345798130372 H 0.0 **** 0.06
15903 H 61.888566375051994 13.895355179392595 31.71053198884193 H 0.0 **** 0.06
15904 H 62.519044147304186 13.133402884167708 33.190696545578575 H 0.0 **** 0.06
15905 H 63.10385834438999 12.59809742791606 31.59705730210556 H 0.0 **** 0.06
15906 C 11.991768133225804 43.996808990746786 35.85121564625749 C 0.0 **** -0.24
15907 H 12.748620234455501 43.48444914382702 35.25696977878147 H 0.0 **** 0.06
15908 H 12.27729250393628 45.04049452176139 35.98049899535698 H 0.0 **** 0.06
15909 H 11.90978119790239 43.518075113298266 36.82684716622134 H 0.0 **** 0.06
15910 H 11.030989960790578 43.94360930281704 35.33843013966292 H 0.0 **** 0.06
15911 C 99.8328071409286 70.60472454391649 53.599320887372755 C 0.0 **** -0.24
15912 H 99.08869958089781 70.0087553624891 54.1266921952883 H 0.0 **** 0.06
15913 H 100.57065116334343 70.97562495403362 54.3115792507522 H 0.0 **** 0.06
15914 H 99.34377467023194 71.44720677582018 53.11061159005163 H 0.0 **** 0.06
15915 H 100.32836797392241 69.98716752862475 52.850106195220775 H 0.0 **** 0.06
15916 C 75.01083728686042 137.9986861468491 54.8513795774881 C 0.0 **** -0.24
15917 H 75.6926547846909 138.80262538841177 54.576222503618965 H 0.0 **** 0.06
15918 H 73.9833969163692 138.35693805194225 54.789843382373476 H 0.0 **** 0.06
15919 H 75.22305199006514 137.67400685546755 55.86943168645405 H 0.0 **** 0.06
15920 H 75.14480417088863 137.1597598258851 54.16763591753772 H 0.0 **** 0.06
15921 C 106.55462539687184 158.12843842552655 49.20135168970573 C 0.0 **** -0.24
15922 H 106.97594308621396 158.6593306317278 48.34751169598725 H 0.0 **** 0.06
15923 H 105.47446740904724 158.04818615182182 49.08272992029259 H 0.0 **** 0.06
15924 H 106.7813839167712 158.67589999159156 50.1159555652213 H 0.0 **** 0.06
15925 H 106.98987160438975 157.1297991164957 49.25756715783909 H 0.0 **** 0.06
15926 C 8.508711160783037 35.089566366218065 7.522395619762108 C 0.0 **** -0.24
15927 H 8.27822365570347 34.72606322337762 8.523577829277201 H 0.0 **** 0.06
15928 H 9.516352821394378 35.50448536541715 7.509851682092574 H 0.0 **** 0.06
15929 H 7.7931509550295175 35.86237019469759 7.242714244667809 H 0.0 **** 0.06
15930 H 8.446921804803196 34.26394876132973 6.813526451622977 H 0.0 **** 0.06
15931 C 30.58208408316284 16.02751066147337 141.65558721010638 C 0.0 **** -0.24
15932 H 30.134416865252312 16.105438957495608 142.64620019672623 H 0.0 **** 0.06
15933 H 31.667173925703338 15.997794229859664 141.74932510352986 H 0.0 **** 0.06
15934 H 30.291754226578867 16.891743787873082 141.05763190007684 H 0.0 **** 0.06
15935 H 30.233114853367432 15.116193763651154 141.16964600604507 H 0.0 **** 0.06
15936 C 116.32189191689554 140.1454631754292 52.92386063797878 C 0.0 **** -0.24
15937 H 116.84493999884776 140.75049507201186 52.18244847110165 H 0.0 **** 0.06
15938 H 116.29021803981024 140.68127866069668 53.87304313662504 H 0.0 **** 0.06
15939 H 116.84756132862239 139.20046324388076 53.05753422657243 H 0.0 **** 0.06
15940 H 115.30536871864928 139.95090372510344 52.5821516116646 H 0.0 **** 0.06
15941 C 113.75231505654432 60.02812767648129 80.794690076938 C 0.0 **** -0.24
15942 H 114.16720494876421 60.265186860841126 79.81462416118596 H 0.0 **** 0.06
15943 H 114.50990337436286 60.19949199889207 81.55940509928044 H 0.0 **** 0.06
15944 H 113.44495928959037 58.98304589095842 80.81553041488436 H 0.0 **** 0.06
15945 H 112.88944213872219 60.66538321663967 80.98730770172959 H 0.0 **** 0.06
15946 C 86.8672714091883 73.91320453586212 50.48116644684737 C 0.0 **** -0.24
15947 H 86.84700828310775 73.0561853065806 49.80805256463391 H 0.0 **** 0.06
15948 H 87.89893911034193 74.23313423630685 50.63048029016841 H 0.0 **** 0.06
15949 H 86.43206905818082 73.6319567401955 51.440084819137056 H 0.0 **** 0.06
15950 H 86.29209013250346 74.7295609957647 50.04586374214293 H 0.0 **** 0.06
15951 C 147.5088033090761 45.39042059205151 7.753155903508173 C 0.0 **** -0.24
15952 H 147.19895859574754 44.95079464472178 8.701456567562388 H 0.0 **** 0.06
15953 H 146.9745278942444 44.906781021200615 6.936558484471391 H 0.0 **** 0.06
15954 H 148.58201981674432 45.24785745886011 7.6214973399263215 H 0.0 **** 0.06
15955 H 147.28208668916022 46.456391209276404 7.755995145181799 H 0.0 **** 0.06
15956 C 162.56149788607615 100.71636296170126 109.77328405950027 C 0.0 **** -0.24
15957 H 162.7425699418843 99.85881716607992 109.12531494532612 H 0.0 **** 0.06
15958 H 162.5205626010137 101.62456840918986 109.17086637776754 H 0.0 **** 0.06
15959 H 163.37002946529495 100.7992960097364 110.49999698032087 H 0.0 **** 0.06
15960 H 161.61457472201337 100.58372764957815 110.29553037867203 H 0.0 **** 0.06
15961 C 119.96068424321996 151.103803182775 20.076252266270046 C 0.0 **** -0.24
15962 H 120.80410386513407 151.74939647957092 20.32163869671757 H 0.0 **** 0.06
15963 H 120.31230823367889 150.0813162612056 19.941530718952038 H 0.0 **** 0.06
15964 H 119.49372921840114 151.45227217384945 19.154591131060926 H 0.0 **** 0.06
15965 H 119.23238167546566 151.1334977815323 20.886664171205155 H 0.0 **** 0.06
15966 C 9.483259619269631 125.40201262582991 142.855873447408 C 0.0 **** -0.24
15967 H 8.990789253266115 126.36688539631902 142.98025334000448 H 0.0 **** 0.06
15968 H 9.063250917764407 124.88896521947729 141.99041754350574 H 0.0 **** 0.06
15969 H 9.32610973574208 124.7965979120066 143.74881174772574 H 0.0 **** 0.06
15970 H 10.55086132987958 125.55573936486292 142.70494473823834 H 0.0 **** 0.06
15971 C 56.4035888693337 60.42477436980357 58.98714677242319 C 0.0 **** -0.24
15972 H 56.63157082235661 60.14069481469613 60.014331703108525 H 0.0 **** 0.06
15973 H 55.36907528396668 60.76211487264942 58.92437035660521 H 0.0 **** 0.06
15974 H 56.54474011668546 59.56340896306574 58.332643233746 H 0.0 **** 0.06
15975 H 57.06889104737948 61.230593249918456 58.67636418930766 H 0.0 **** 0.06
15976 C 144.01762643482562 6.92266913656897 66.35859107211294 C 0.0 **** -0.24
15977 H 143.3385700337383 7.7576182441566175 66.18740628458237 H 0.0 **** 0.06
15978 H 144.46021520878406 7.011362268501955 67.35128719603978 H 0.0 **** 0.06
15979 H 144.80621757934466 6.935759045353677 65.60690331367287 H 0.0 **** 0.06
15980 H 143.4650367926406 5.985057154793822 66.2888605044856 H 0.0 **** 0.06
15981 C 159.49634055393653 102.69415610107174 124.4718284889691 C 0.0 **** -0.24
15982 H 158.95000976077796 103.03603121560602 125.350763025648 H 0.0 **** 0.06
15983 H 158.78901764742585 102.36681376021451 123.70898893023735 H 0.0 **** 0.06
15984 H 160.14416943870657 101.86267623095134 124.7485319449845 H 0.0 **** 0.06
15985 H 160.10230704877029 103.51206839146948 124.08104213808778 H 0.0 **** 0.06
15986 C 37.23127008047612 120.89646583470528 133.86235238397632 C 0.0 **** -0.24
15987 H 36.339452375817814 121.161715988259 134.4297185606871 H 0.0 **** 0.06
15988 H 36.93796141360542 120.48653803385673 132.8956796923405 H 0.0 **** 0.06
15989 H 37.80376081634921 120.1504798024468 134.4151670957165 H 0.0 **** 0.06
15990 H 37.84327067910641 121.78522749451963 133.71025103824408 H 0.0 **** 0.06
15991 C 133.7092964859182 146.88523420943997 30.535098380385307 C 0.0 **** -0.24
15992 H 133.43458003927105 145.89360814532432 30.17346109912023 H 0.0 **** 0.06
15993 H 133.33155711994445 147.0188693580538 31.549335782662638 H 0.0 **** 0.06
15994 H 133.27461928803837 147.64213745154805 29.882773269963877 H 0.0 **** 0.06
15995 H 134.79454386273778 146.98373625840117 30.533952012292815 H 0.0 **** 0.06
15996 C 143.1731544234792 126.3624461927252 133.80039682812355 C 0.0 **** -0.24
15997 H 143.12850878715028 126.55478816961977 132.72853294669562 H 0.0 **** 0.06
15998 H 142.26684755525932 126.74021945978245 134.274864012526 H 0.0 **** 0.06
15999 H 144.04262048088518 126.86596315193702 134.22446797778582 H 0.0 **** 0.06
16000 H 143.25389343005313 125.2899770776865 133.97402006487226 H 0.0 **** 0.06
16001 C 48.46178352668882 22.73881856084128 110.06538815780388 C 0.0 **** -0.24
16002 H 48.0344599520959 23.703615266932246 109.79292032193163 H 0.0 **** 0.06
16003 H 49.07581947695628 22.853948722285224 110.95943893906681 H 0.0 **** 0.06
16004 H 49.07802691729687 22.370308530450643 109.24556788260807 H 0.0 **** 0.06
16005 H 47.65855023949574 22.029468128402954 110.26443363650384 H 0.0 **** 0.06
16006 C 88.30769935624056 50.981338695756165 153.24001386807964 C 0.0 **** -0.24
16007 H 89.07052052162047 51.405370041801234 152.5884364841225 H 0.0 **** 0.06
16008 H 87.74993974117308 51.78744991015793 153.71881428563813 H 0.0 **** 0.06
16009 H 88.78239118547447 50.365267611812214 154.00360927025145 H 0.0 **** 0.06
16010 H 87.62605218818749 50.367895480490006 152.6506163594654 H 0.0 **** 0.06
16011 C 36.278706546123885 114.94339402463746 118.21748597339604 C 0.0 **** -0.24
16012 H 35.776168639899296 114.15117629033921 117.66230620206176 H 0.0 **** 0.06
16013 H 36.874402389551136 114.50352281308597 119.01797436560034 H 0.0 **** 0.06
16014 H 35.53456085353528 115.61541734865875 118.64457927264442 H 0.0 **** 0.06
16015 H 36.92946283487626 115.50130997330083 117.54451354527399 H 0.0 **** 0.06
16016 C 3.4012638100542745 7.934790091827864 64.75789224635946 C 0.0 **** -0.24
16017 H 2.9807250738311595 8.448103610913876 63.89377175328703 H 0.0 **** 0.06
16018 H 3.5924188596160533 6.892150599672874 64.50332692555696 H 0.0 **** 0.06
16019 H 2.696078344644242 7.982722666054315 65.58816558016673 H 0.0 **** 0.06
16020 H 4.335230792311279 8.415457975586492 65.04735880409896 H 0.0 **** 0.06
16021 C 43.658185087100605 21.4761085753955 65.86936792578393 C 0.0 **** -0.24
16022 H 43.70956175767067 22.48186688109294 66.28802239566852 H 0.0 **** 0.06
16023 H 44.516978444934395 20.897309619711365 66.21122262076545 H 0.0 **** 0.06
16024 H 43.66937627673619 21.53507315770767 64.78070874509535 H 0.0 **** 0.06
16025 H 42.73913312610739 20.99205350566828 66.19860190944945 H 0.0 **** 0.06
16026 C 143.31252114331807 25.33331319803132 12.705098191870576 C 0.0 **** -0.24
16027 H 143.78857857090225 25.58113795377836 11.755775218911452 H 0.0 **** 0.06
16028 H 143.2025775108989 26.238450755548932 13.302437507329728 H 0.0 **** 0.06
16029 H 143.9297320513287 24.613620612400723 13.243293460311293 H 0.0 **** 0.06
16030 H 142.33017914953314 24.900419348718785 12.516077084647463 H 0.0 **** 0.06
16031 C 123.22731607950072 66.42041884382593 102.71160850887472 C 0.0 **** -0.24
16032 H 122.45536128957971 66.61726317671128 103.45557286831954 H 0.0 **** 0.06
16033 H 124.14214368285238 66.10520849935546 103.2134309381365 H 0.0 **** 0.06
16034 H 123.41931073106261 67.32782846881969 102.13915879261936 H 0.0 **** 0.06
16035 H 122.8897795994076 65.63063720282275 102.04009681464288 H 0.0 **** 0.06
16036 C 63.04506244949134 120.32421922775069 149.25467519141594 C 0.0 **** -0.24
16037 H 62.764368405499766 120.92588850790287 148.3899140671001 H 0.0 **** 0.06
16038 H 63.86634058981252 119.6601674288861 148.98321927931903 H 0.0 **** 0.06
16039 H 62.18933217486472 119.7307511430028 149.57705880555721 H 0.0 **** 0.06
16040 H 63.3605920409251 120.97986076874133 150.06631557056193 H 0.0 **** 0.06
16041 C 69.83232749289698 67.21806956275796 6.251275324510168 C 0.0 **** -0.24
16042 H 69.54362907252498 68.00300056968022 6.950275604358993 H 0.0 **** 0.06
16043 H 70.85721680427991 66.90768785367577 6.457105303203242 H 0.0 **** 0.06
16044 H 69.7656623833825 67.59664434109192 5.231987968427056 H 0.0 **** 0.06
16045 H 69.16307010341635 66.36527339458343 6.367081682007679 H 0.0 **** 0.06
16046 C 117.34899804171175 158.5961423047809 72.80988769600737 C 0.0 **** -0.24
16047 H 117.62527782566713 157.7596258206685 73.45219488512544 H 0.0 **** 0.06
16048 H 116.69946313136228 159.27702501678246 73.36052460597676 H 0.0 **** 0.06
16049 H 116.8218378661453 158.22173570896146 71.93209345971837 H 0.0 **** 0.06
16050 H 118.24843923447702 159.12617355323567 72.49576305926723 H 0.0 **** 0.06
16051 C 44.78668976164292 30.534574795786483 50.32520135240782 C 0.0 **** -0.24
16052 H 43.76418810152431 30.165411172701766 50.41066163740922 H 0.0 **** 0.06
16053 H 45.21350687619493 30.207533636748224 49.37775000937606 H 0.0 **** 0.06
16054 H 45.384188132238506 30.14295007189645 51.14923937837381 H 0.0 **** 0.06
16055 H 44.78329134843612 31.624291855889766 50.36596981381507 H 0.0 **** 0.06
16056 C 125.02376484400853 72.23802042867054 40.14036841628294 C 0.0 **** -0.24
16057 H 125.26330631681822 72.65783865979421 39.16409624610577 H 0.0 **** 0.06
16058 H 125.92219514425182 71.80442471291988 40.57993936155822 H 0.0 **** 0.06
16059 H 124.26474680939796 71.46371697513709 40.02671255385201 H 0.0 **** 0.06
16060 H 124.64454631358436 73.02594540798809 40.79243010110076 H 0.0 **** 0.06
16061 C 86.00117205060141 161.13690372083602 132.80648844691038 C 0.0 **** -0.24
16062 H 86.39214179871921 162.05045930196445 133.25495776152067 H 0.0 **** 0.06
16063 H 86.73692288097406 160.33873482970301 132.9100549652744 H 0.0 **** 0.06
16064 H 85.79695199772398 161.3092410050195 131.74965407364874 H 0.0 **** 0.06
16065 H 85.07946618289924 160.84999053678672 133.3125951266057 H 0.0 **** 0.06
16066 C 86.77086882320425 15.745944065223654 92.76007289157629 C 0.0 **** -0.24
16067 H 86.06010049181151 15.720432758251377 93.58683431223139 H 0.0 **** 0.06
16068 H 87.78690907092812 15.7265140016965 93.15467719131675 H 0.0 **** 0.06
16069 H 86.6226796566875 16.657159183388615 92.1818966306094 H 0.0 **** 0.06
16070 H 86.61288035191552 14.878182321647529 92.11911183476401 H 0.0 **** 0.06
16071 C 61.88691895051238 5.48961420955451 43.28862962369392 C 0.0 **** -0.24
16072 H 61.94283823129797 5.589992517626477 44.37324297880298 H 0.0 **** 0.06
16073 H 62.81870460862399 5.836489539972746 42.84343550038555 H 0.0 **** 0.06
16074 H 61.05797311442825 6.089270442001727 42.91186832351893 H 0.0 **** 0.06
16075 H 61.72561313093513 4.4433809891837726 43.02914295219573 H 0.0 **** 0.06
16076 C 122.94610865731096 44.085018484721274 126.84995270179832 C 0.0 **** -0.24
16077 H 122.74209262649092 44.56674780836448 127.80668369926514 H 0.0 **** 0.06
16078 H 123.9017140329353 43.56314456858752 126.90429282743682 H 0.0 **** 0.06
16079 H 122.9875998005723 44.83952206626276 126.06498221928112 H 0.0 **** 0.06
16080 H 122.15371675141861 43.370466554435154 126.62676563288255 H 0.0 **** 0.06
16081 C 98.49332168594458 40.268567050688716 75.5096179488429 C 0.0 **** -0.24
16082 H 98.24345004465252 39.24564031875356 75.7893497642873 H 0.0 **** 0.06
16083 H 99.01892154613824 40.75290099506786 76.33271228106344 H 0.0 **** 0.06
16084 H 97.57868718422097 40.81892753925759 75.28853216522378 H 0.0 **** 0.06
16085 H 99.13315064912638 40.25696258193912 74.62642083954728 H 0.0 **** 0.06
16086 C 80.17385705498408 99.75314190294827 145.97620282819244 C 0.0 **** -0.24
16087 H 79.97730064324458 98.68079132987884 145.9547619945714 H 0.0 **** 0.06
16088 H 80.94279068891828 99.96579008171292 146.7187435118012 H 0.0 **** 0.06
16089 H 79.2584184828685 100.28467728794087 146.23608012777822 H 0.0 **** 0.06
16090 H 80.51667934945128 100.07805063788604 144.99340169311725 H 0.0 **** 0.06
16091 C 152.84485530669824 116.62353908951019 1.1357084764815681 C 0.0 **** -0.24
16092 H 152.4435170281833 115.75312521390137 0.6159064459585579 H 0.0 **** 0.06
16093 H 153.05875775398383 116.36148350789608 2.171197939368483 H 0.0 **** 0.06
16094 H 152.11295118625344 117.43139839673964 1.1080212262727969 H 0.0 **** 0.06
16095 H 153.76231990002162 116.94814530157953 0.6447956704733429 H 0.0 **** 0.06
16096 C 71.4341132570625 101.17715191530237 56.4289235097917 C 0.0 **** -0.24
16097 H 72.31059639735707 101.2538129944906 55.785146177862984 H 0.0 **** 0.06
16098 H 71.03152714409691 100.16578461356028 56.37446754073278 H 0.0 **** 0.06
16099 H 70.6779162990315 101.88919818204164 56.09880516414198 H 0.0 **** 0.06
16100 H 71.71985037856774 101.3996540744763 57.457676630916296 H 0.0 **** 0.06
16101 C 2.2461400138128624 153.58985630546843 17.347902972341586 C 0.0 **** -0.24
16102 H 2.7535796497902965 154.42230339371883 16.860876583323176 H 0.0 **** 0.06
16103 H 2.6198350942998445 153.48217376913993 18.36669507412276 H 0.0 **** 0.06
16104 H 2.437921956600242 152.67249459448513 16.792620170174388 H 0.0 **** 0.06
16105 H 1.1734493893096953 153.7827207679506 17.372356804695755 H 0.0 **** 0.06
16106 C 153.45841219461948 74.99813808609481 81.9894547156309 C 0.0 **** -0.24
16107 H 154.51166076856066 75.15089251070391 82.22379499696756 H 0.0 **** 0.06
16108 H 152.87479255273183 75.01797927104842 82.90964126531881 H 0.0 **** 0.06
16109 H 153.330861942309 74.03285171581888 81.4991374477964 H 0.0 **** 0.06
16110 H 153.11613428075628 75.79074831581849 81.32426849963383 H 0.0 **** 0.06
16111 C 33.502197817802085 52.250164925146564 87.6064147549883 C 0.0 **** -0.24
16112 H 34.16691186322444 52.815880714873785 88.25965265496757 H 0.0 **** 0.06
16113 H 32.47040987521274 52.393558250337406 87.92758894094055 H 0.0 **** 0.06
16114 H 33.75606023901753 51.191454138685174 87.65848389488286 H 0.0 **** 0.06
16115 H 33.61609504102117 52.60160381690821 86.58100801669391 H 0.0 **** 0.06
16116 C 7.037484172986012 39.6116606121125 31.057687334736443 C 0.0 **** -0.24
16117 H 6.611231594701735 39.07093997750697 30.21191559845633 H 0.0 **** 0.06
16118 H 8.08245277038884 39.32747178495261 31.17889037126608 H 0.0 **** 0.06
16119 H 6.48506644673833 39.36305929252629 31.963543216571594 H 0.0 **** 0.06
16120 H 6.970354692223623 40.68353193680326 30.87402916548018 H 0.0 **** 0.06
16121 C 96.05913682222825 8.066544620186534 9.21148915543688 C 0.0 **** -0.24
16122 H 96.03429565965746 7.318158471070262 8.418937600941092 H 0.0 **** 0.06
16123 H 96.62470148009055 8.934845220961677 8.873330106837699 H 0.0 **** 0.06
16124 H 96.53545792452434 7.642773430342345 10.094770536561953 H 0.0 **** 0.06
16125 H 95.04004815195191 8.368212202403669 9.456910952356822 H 0.0 **** 0.06
16126 C 107.47951671253213 30.112446193389076 103.57256624874736 C 0.0 **** -0.24
16127 H 107.30427139022183 31.140110265580773 103.89026339476379 H 0.0 **** 0.06
16128 H 106.57571875424838 29.714962864620304 103.11173430223045 H 0.0 **** 0.06
16129 H 107.74369112841632 29.50507204834946 104.4386992669655 H 0.0 **** 0.06
16130 H 108.29640428558875 30.090805187463616 102.85145654432165 H 0.0 **** 0.06
16131 C 156.0491530332591 77.34071873532402 120.89491221539294 C 0.0 **** -0.24
16132 H 155.2265940652823 77.96900256509659 120.55361026525699 H 0.0 **** 0.06
16133 H 156.68068738146596 77.07724344447419 120.04665872462601 H 0.0 **** 0.06
16134 H 155.64835126687504 76.43247125336147 121.34555656250774 H 0.0 **** 0.06
16135 H 156.63933514378414 77.88363220816683 121.63368072843645 H 0.0 **** 0.06
16136 C 126.02002524676212 48.8287880445871 90.22797096197694 C 0.0 **** -0.24
16137 H 126.53490918560055 49.60613874695434 90.79338081341817 H 0.0 **** 0.06
16138 H 125.72595713130062 48.02405533234827 90.90157177282597 H 0.0 **** 0.06
16139 H 126.68862004966533 48.43589700128962 89.46159149188647 H 0.0 **** 0.06
16140 H 125.13346498243186 49.24999619237809 89.75530362531019 H 0.0 **** 0.06
16141 C 129.5073578034899 2.752077863017014 65.54346466092896 C 0.0 **** -0.24
16142 H 129.6291055079982 3.78359742002376 65.87361273125913 H 0.0 **** 0.06
16143 H 130.48370407227193 2.2704711418631263 65.48950369648192 H 0.0 **** 0.06
16144 H 129.03987249894956 2.738647434478075 64.55859767135561 H 0.0 **** 0.06
16145 H 128.87674913473992 2.2155954557031734 66.25214454461913 H 0.0 **** 0.06
16146 C 82.09741034486439 141.99739786559778 37.59743530598631 C 0.0 **** -0.24
16147 H 81.35281717559502 141.83283637669598 38.375359686120504 H 0.0 **** 0.06
16148 H 81.84901744377117 141.395891712669 36.72297708908373 H 0.0 **** 0.06
16149 H 83.08078095681236 141.70810659241366 37.969773448227954 H 0.0 **** 0.06
16150 H 82.1089342897456 143.05173035117562 37.322182609902015 H 0.0 **** 0.06
16151 C 57.51902846763268 82.30836105973246 157.26518577848785 C 0.0 **** -0.24
16152 H 57.70370815874722 82.45973658101146 156.2017551445347 H 0.0 **** 0.06
16153 H 58.35489485119882 81.76331598765722 157.7042872791235 H 0.0 **** 0.06
16154 H 56.60152775950152 81.73529293762128 157.3960873109516 H 0.0 **** 0.06
16155 H 57.41682402190712 83.276238174012 157.7568828659995 H 0.0 **** 0.06
16156 C 120.0848385525716 64.38385428811289 33.70648071319101 C 0.0 **** -0.24
16157 H 120.3431527010211 63.564704630782614 34.37796676019349 H 0.0 **** 0.06
16158 H 119.75635281983222 65.24333430319165 34.29265572680441 H 0.0 **** 0.06
16159 H 119.28064550264853 64.06791774731444 33.042768075821755 H 0.0 **** 0.06
16160 H 120.95845769762045 64.65873522519529 33.1153462792505 H 0.0 **** 0.06
16161 C 137.7587420541598 13.663056641396516 42.99542664199345 C 0.0 **** -0.24
16162 H 137.80582324752893 14.611311768997702 42.4614787213965 H 0.0 **** 0.06
16163 H 137.40937148189815 13.835820061342098 44.01381992944772 H 0.0 **** 0.06
16164 H 138.7506393901705 13.210874232136192 43.02278772611473 H 0.0 **** 0.06
16165 H 137.0680499110637 12.992076532953625 42.483142578395814 H 0.0 **** 0.06
16166 C 86.92631232181147 154.0333692651801 45.86890824554362 C 0.0 **** -0.24
16167 H 87.03827396018161 152.9780152291698 46.115864277567354 H 0.0 **** 0.06
16168 H 86.37678267292225 154.53621095829166 46.664702976087824 H 0.0 **** 0.06
16169 H 86.37995160042647 154.13041996051965 44.93064549689103 H 0.0 **** 0.06
16170 H 87.91161621242276 154.4870676753861 45.76442936764397 H 0.0 **** 0.06
16171 C 95.20651493908694 27.144927265117843 58.64442521899923 C 0.0 **** -0.24
16172 H 95.96389324696166 27.90562845271711 58.45282750271474 H 0.0 **** 0.06
16173 H 94.45202058724678 27.54618748610841 59.32012435762044 H 0.0 **** 0.06
16174 H 95.67682989059465 26.27290941217271 59.10050702339993 H 0.0 **** 0.06
16175 H 94.73668174193554 26.855066815427733 57.70553252676507 H 0.0 **** 0.06
16176 C 120.25528171969881 89.38809368814564 149.40219579106966 C 0.0 **** -0.24
16177 H 120.89647514333126 89.37449319176285 150.28418383494383 H 0.0 **** 0.06
16178 H 120.87319686358705 89.41401600054918 148.50447101498582 H 0.0 **** 0.06
16179 H 119.61687439049422 90.27096226238612 149.43017809870537 H 0.0 **** 0.06
16180 H 119.63518666243999 88.491837705085 149.39065528079735 H 0.0 **** 0.06
16181 C 1.2063373962688502 125.55369039892659 142.3938682843003 C 0.0 **** -0.24
16182 H 1.5183018364517693 124.54060263875678 142.64389263546974 H 0.0 **** 0.06
16183 H 0.7619444973781242 126.02409617490324 143.27229943290362 H 0.0 **** 0.06
16184 H 0.47264041542780433 125.52049066446665 141.58888731999758 H 0.0 **** 0.06
16185 H 2.073124649381839 126.1311390230313 142.0718452862953 H 0.0 **** 0.06
16186 C 74.12666976514382 129.39282139844534 135.92518642429502 C 0.0 **** -0.24
16187 H 73.46020723968326 128.88903872004076 135.2252610255261 H 0.0 **** 0.06
16188 H 74.06939443771657 128.90397820306086 136.89727937060343 H 0.0 **** 0.06
16189 H 73.8271077385956 130.43616035370746 136.02373219870287 H 0.0 **** 0.06
16190 H 75.14962999224778 129.34241058330528 135.5516814159759 H 0.0 **** 0.06
16191 C 89.63345553018178 134.69691004606878 12.19923431368926 C 0.0 **** -0.24
16192 H 89.6753186645048 135.77487277197716 12.047614214491276 H 0.0 **** 0.06
16193 H 90.64274247793034 134.28608616649248 12.173749955942654 H 0.0 **** 0.06
16194 H 89.0362155696426 134.24235795358192 11.408015811622931 H 0.0 **** 0.06
16195 H 89.17848788782968 134.48348689411733 13.166469992394177 H 0.0 **** 0.06
16196 C 116.43697436776472 52.5163152913656 53.05383422508248 C 0.0 **** -0.24
16197 H 115.73345584659995 52.264020541445845 52.25935391923272 H 0.0 **** 0.06
16198 H 116.23631159898059 53.527994421008884 53.40726974270859 H 0.0 **** 0.06
16199 H 117.45466485029425 52.460171199380596 52.66893067189915 H 0.0 **** 0.06
16200 H 116.3204975208422 51.81333107925845 53.87832387359569 H 0.0 **** 0.06
16201 C 42.81848118029218 25.44480855739488 132.8820673617531 C 0.0 **** -0.24
16202 H 43.07983174457266 24.592836333034846 132.2530116243292 H 0.0 **** 0.06
16203 H 41.89071079034842 25.232878860177728 133.4128674581419 H 0.0 **** 0.06
16204 H 42.686059969813925 26.3287837143722 132.25792121464247 H 0.0 **** 0.06
16205 H 43.618018182396455 25.622853035077192 133.60131113630476 H 0.0 **** 0.06
16206 C 53.85700517205639 7.086618991173815 98.08291024897159 C 0.0 **** -0.24
16207 H 53.078590733924955 6.327383674681371 98.16628044326373 H 0.0 **** 0.06
16208 H 53.626895263755785 7.917716421690521 98.74882789954998 H 0.0 **** 0.06
16209 H 53.903439654682245 7.445960891358766 97.05450219875138 H 0.0 **** 0.06
16210 H 54.81786038753195 6.653288573412958 98.35959028760658 H 0.0 **** 0.06
16211 C 2.77700922144669 106.5645017375873 108.15320945184288 C 0.0 **** -0.24
16212 H 3.254069460579757 106.38706263455435 109.11745567101315 H 0.0 **** 0.06
16213 H 3.3159921154495464 106.0225480898248 107.37642857891458 H 0.0 **** 0.06
16214 H 2.7940852568283105 107.63161901245144 107.93096859993341 H 0.0 **** 0.06
16215 H 1.7444973597719127 106.21756365475045 108.19022390138386 H 0.0 **** 0.06
16216 C 66.64943667359114 134.62958971587454 128.9622626486343 C 0.0 **** -0.24
16217 H 66.21460431327205 134.7177755328474 127.9671943578839 H 0.0 **** 0.06
16218 H 66.779234551576 133.5761258561651 129.21014218052562 H 0.0 **** 0.06
16219 H 65.98505412016402 135.09408018799863 129.69057389016783 H 0.0 **** 0.06
16220 H 67.61690575164653 135.1298230111357 128.98208800060314 H 0.0 **** 0.06
16221 C 139.49842563899836 58.614339472380564 117.20831677867255 C 0.0 **** -0.24
16222 H 138.75245519839913 59.26201328502579 117.6699883285886 H 0.0 **** 0.06
16223 H 139.37651233277387 57.59771030035968 117.5818018812277 H 0.0 **** 0.06
16224 H 140.49616982757544 58.97545653484616 117.45580582595107 H 0.0 **** 0.06
16225 H 139.3667764254891 58.623227997368915 116.12697395945031 H 0.0 **** 0.06
16226 C 21.13306629176931 152.53603914719238 81.50479847769952 C 0.0 **** -0.24
16227 H 20.126521833939506 152.85280225247328 81.2290063664991 H 0.0 **** 0.06
16228 H 21.24214231905482 151.467574870594 81.31503966062292 H 0.0 **** 0.06
16229 H 21.299280286502373 152.73620513372825 82.56274521868829 H 0.0 **** 0.06
16230 H 21.862298945537134 153.08647775065083 80.91155999788214 H 0.0 **** 0.06
16231 C 108.76308411034512 68.7021317921247 88.98960066430038 C 0.0 **** -0.24
16232 H 107.76217291553422 68.2702092491042 89.01117785791912 H 0.0 **** 0.06
16233 H 109.27257310345993 68.38896484921524 88.07745575546636 H 0.0 **** 0.06
16234 H 109.32634691150378 68.35771413845242 89.85738426507174 H 0.0 **** 0.06
16235 H 108.69038210292524 69.78908459509748 89.01106811161289 H 0.0 **** 0.06
16236 C 63.3157074946179 156.29118069985805 139.3614997183209 C 0.0 **** -0.24
16237 H 63.16020908744507 156.9281497131522 140.23205848584328 H 0.0 **** 0.06
16238 H 64.3843432279535 156.20432200154062 139.16206519761636 H 0.0 **** 0.06
16239 H 62.8191509319949 156.73183938001688 138.49666367526976 H 0.0 **** 0.06
16240 H 62.89977961342608 155.30252617065162 139.55489068847353 H 0.0 **** 0.06
16241 C 121.62400944357535 9.8291398592998 80.77865738357447 C 0.0 **** -0.24
16242 H 120.85921212267266 10.258156771366657 80.1317830663185 H 0.0 **** 0.06
16243 H 121.28649092108506 8.860041120776913 81.14586540658506 H 0.0 **** 0.06
16244 H 121.80172393509275 10.496011600676837 81.6221344048694 H 0.0 **** 0.06
16245 H 122.5480317004367 9.702470003275323 80.214040266417 H 0.0 **** 0.06
16246 C 111.74299861620977 151.65496537810859 89.20678200808669 C 0.0 **** -0.24
16247 H 112.62632237495419 151.2018295524046 89.65677747051609 H 0.0 **** 0.06
16248 H 111.25190597671855 152.29768553813665 89.93808133130653 H 0.0 **** 0.06
16249 H 111.05411240297803 150.87100770348138 88.89096397591703 H 0.0 **** 0.06
16250 H 112.03983697573244 152.2483565396445 88.3412631976268 H 0.0 **** 0.06
16251 C 95.54854936860771 97.39584377124157 147.33826301545372 C 0.0 **** -0.24
16252 H 94.86903307718987 97.28546011898419 146.49286019375555 H 0.0 **** 0.06
16253 H 96.50863872922557 96.94047469295589 147.09381608510148 H 0.0 **** 0.06
16254 H 95.12311958276237 96.90164038611707 148.21178311955208 H 0.0 **** 0.06
16255 H 95.69209586963771 98.45415625251903 147.55333489470178 H 0.0 **** 0.06
16256 C 38.79824166822492 150.0194938950551 28.945807193865676 C 0.0 **** -0.24
16257 H 39.71440697014859 150.5911817069312 29.088884087848612 H 0.0 **** 0.06
16258 H 39.039097602448024 148.95847923656422 28.877147302640367 H 0.0 **** 0.06
16259 H 38.308384317866896 150.34139456317757 28.02737561681164 H 0.0 **** 0.06
16260 H 38.13116806040249 150.1864774489162 29.792011764560385 H 0.0 **** 0.06
16261 C 148.60811927098453 41.80256266145835 50.60246983763031 C 0.0 **** -0.24
16262 H 148.2508389815583 40.77253595203321 50.62597856784748 H 0.0 **** 0.06
16263 H 149.65543299949104 41.830441684222336 50.904644614461745 H 0.0 **** 0.06
16264 H 148.01432822633797 42.407160978886054 51.28786090796967 H 0.0 **** 0.06
16265 H 148.51094071485565 42.19747070116213 49.59101156630834 H 0.0 **** 0.06
16266 C 6.780381247313528 145.67923315554222 132.74690708283674 C 0.0 **** -0.24
16267 H 6.52323837323911 145.23964148064448 133.71080882506885 H 0.0 **** 0.06
16268 H 6.871544220642022 146.76030859818096 132.85386065567502 H 0.0 **** 0.06
16269 H 5.998928525667793 145.450165969832 132.02356990592853 H 0.0 **** 0.06
16270 H 7.728801540725016 145.266581501386 132.40079227556663 H 0.0 **** 0.06
16271 C 1.9848484913991342 138.67442720368118 70.84917894637064 C 0.0 **** -0.24
16272 H 1.15328112332773 139.29386568332555 71.18485368726415 H 0.0 **** 0.06
16273 H 1.6320099790889913 137.97101152699642 70.09484398615695 H 0.0 **** 0.06
16274 H 2.3931016480178755 138.12407131123874 71.69789542516864 H 0.0 **** 0.06
16275 H 2.7614596710711794 139.30854731428082 70.42130089925023 H 0.0 **** 0.06
16276 C 156.10012710578576 58.24645415006387 48.53104839966784 C 0.0 **** -0.24
16277 H 156.5071506449038 59.10352736448739 47.99438164626599 H 0.0 **** 0.06
16278 H 155.34185810180503 58.586956450520375 49.237218493761304 H 0.0 **** 0.06
16279 H 156.9013631291242 57.74312491017575 49.072898371333395 H 0.0 **** 0.06
16280 H 155.65039308368995 57.55299126891046 47.82026122630441 H 0.0 **** 0.06
16281 C 7.43414468116967 31.209303319547757 135.55853477853736 C 0.0 **** -0.24
16282 H 7.985014692355833 30.27753212113248 135.69104724613283 H 0.0 **** 0.06
16283 H 6.391587696866935 30.98640083527215 135.334346831199 H 0.0 **** 0.06
16284 H 7.870559514614371 31.77558115474332 134.73524297872132 H 0.0 **** 0.06
16285 H 7.491113974960797 31.797732180958008 136.47495764350356 H 0.0 **** 0.06
16286 C 66.30442563854464 117.21346764092186 27.54675401165475 C 0.0 **** -0.24
16287 H 65.59444285974071 117.963526710966 27.19953552903017 H 0.0 **** 0.06
16288 H 65.76335258828597 116.32481753122374 27.87336513188975 H 0.0 **** 0.06
16289 H 66.8810280890313 117.61642596016719 28.379888507883145 H 0.0 **** 0.06
16290 H 66.9791315850881 116.94920996626979 26.731792873448875 H 0.0 **** 0.06
16291 C 91.28721541346493 141.04256010461233 82.5253935919244 C 0.0 **** -0.24
16292 H 91.35544050843532 141.2668772115084 81.46088852893251 H 0.0 **** 0.06
16293 H 91.64800056699875 140.03016109206007 82.70614247516892 H 0.0 **** 0.06
16294 H 90.24967622527095 141.12200273934948 82.84690268704776 H 0.0 **** 0.06
16295 H 91.8967479835083 141.75112741891792 83.0856437541014 H 0.0 **** 0.06
16296 C 86.1975106176807 114.36110974567313 38.98734817546645 C 0.0 **** -0.24
16297 H 85.4218405621215 113.90375174059045 38.37255430966897 H 0.0 **** 0.06
16298 H 87.1668470583383 114.23273161389906 38.505276824301916 H 0.0 **** 0.06
16299 H 86.21231689694125 113.88422029666262 39.967000696048316 H 0.0 **** 0.06
16300 H 85.9871649727919 115.42450489461112 39.10361225837647 H 0.0 **** 0.06
16301 C 81.06885516729 6.190336891837546 155.9826155650905 C 0.0 **** -0.24
16302 H 82.05267630903569 5.82003720226453 156.27237405682695 H 0.0 **** 0.06
16303 H 80.73446454487458 6.935563787096271 156.70456130452845 H 0.0 **** 0.06
16304 H 80.36102500461845 5.362399199571996 155.95871026292616 H 0.0 **** 0.06
16305 H 81.12991773185041 6.64544078784337 154.99322701031434 H 0.0 **** 0.06
16306 C 107.17520576077615 87.44001503272406 73.52388868283495 C 0.0 **** -0.24
16307 H 107.37166919587753 88.39249104283465 74.01678770345451 H 0.0 **** 0.06
16308 H 108.03273146729978 86.77915450416393 73.65608900228744 H 0.0 **** 0.06
16309 H 107.00714125885253 87.60984784890607 72.46033191525571 H 0.0 **** 0.06
16310 H 106.28942986094748 86.98028148589185 73.9625400080987 H 0.0 **** 0.06
16311 C 145.9298606331141 90.06130406826871 39.71863091768445 C 0.0 **** -0.24
16312 H 146.65817478144803 90.76764897054748 40.11573191822562 H 0.0 **** 0.06
16313 H 145.78819666490182 89.24609152707633 40.429226255044796 H 0.0 **** 0.06
16314 H 146.29100950955595 89.6601533146911 38.77160482455068 H 0.0 **** 0.06
16315 H 144.9798775289271 90.57127602799387 39.557483251848566 H 0.0 **** 0.06
16316 C 147.83321966111447 147.28929833837825 0.44772958295112986 C 0.0 **** -0.24
16317 H 147.23596870212185 147.1179085043565 -0.44705174836695605 H 0.0 **** 0.06
16318 H 148.49069621048181 148.1444598796214 0.2879134011297282 H 0.0 **** 0.06
16319 H 148.43352567803962 146.40392430411816 0.6588299927296362 H 0.0 **** 0.06
16320 H 147.1735015492913 147.4899571016815 1.2918959941235428 H 0.0 **** 0.06
16321 C 162.46207448019425 51.093422140026945 15.402232963843403 C 0.0 **** -0.24
16322 H 161.7047082782016 50.89820194889444 16.16094723589731 H 0.0 **** 0.06
16323 H 162.20350473891187 52.00046644848106 14.855411071100974 H 0.0 **** 0.06
16324 H 162.50861615783143 50.25199963163408 14.710699234506649 H 0.0 **** 0.06
16325 H 163.4320383010861 51.22270423643545 15.88263299343123 H 0.0 **** 0.06
16326 C 86.99374213927149 51.72909085421219 90.35023302750764 C 0.0 **** -0.24
16327 H 86.39140301987052 52.57225616599149 90.01185941413974 H 0.0 **** 0.06
16328 H 87.94511812554565 52.09445816395902 90.73601962351398 H 0.0 **** 0.06
16329 H 87.17595357765852 51.05451742610421 89.51366053347618 H 0.0 **** 0.06
16330 H 86.46212984056065 51.19561474010645 91.13859618889848 H 0.0 **** 0.06
16331 C 19.114726246797318 22.118721759566853 71.57805820203966 C 0.0 **** -0.24
16332 H 18.382717123183568 21.47024196709458 71.095293769291 H 0.0 **** 0.06
16333 H 20.078236287874518 22.01159565897501 71.07842504038231 H 0.0 **** 0.06
16334 H 19.21439894214376 21.83650797718127 72.62523465902362 H 0.0 **** 0.06
16335 H 18.782863330630676 23.15474143773065 71.51007227021151 H 0.0 **** 0.06
16336 C 128.26156700849316 31.535681909805476 35.26161447544648 C 0.0 **** -0.24
16337 H 127.40866262738365 32.21450587066562 35.25176510604791 H 0.0 **** 0.06
16338 H 128.07228979385854 30.703489729530077 34.58312926159434 H 0.0 **** 0.06
16339 H 128.40993405809218 31.15437504642921 36.27241919525075 H 0.0 **** 0.06
16340 H 129.15560422131034 32.07031229007657 34.940540219115974 H 0.0 **** 0.06
16341 C 50.10981186586682 76.35694069079824 115.41561228608964 C 0.0 **** -0.24
16342 H 50.327333948547974 77.12309912454543 116.16010625413054 H 0.0 **** 0.06
16343 H 51.0400338512289 75.88993765313148 115.09259360874597 H 0.0 **** 0.06
16344 H 49.614648849911035 76.81365618384396 114.55846969992592 H 0.0 **** 0.06
16345 H 49.4561402843984 75.60086042885496 115.85260886679009 H 0.0 **** 0.06
16346 C 109.97020116246077 19.104462637437962 64.121375578401 C 0.0 **** -0.24
16347 H 109.81390017874355 19.931467543549587 63.428305046546654 H 0.0 **** 0.06
16348 H 109.01612878249327 18.816183156058003 64.5639710200216 H 0.0 **** 0.06
16349 H 110.6571037123897 19.41523288240046 64.90805440279286 H 0.0 **** 0.06
16350 H 110.39299873184669 18.25598014364391 63.58445054196619 H 0.0 **** 0.06
16351 C 77.5862245175643 149.8776676894496 135.40423604314736 C 0.0 **** -0.24
16352 H 77.44640218038553 150.81899809805734 135.93744584051595 H 0.0 **** 0.06
16353 H 77.85493370478137 150.0831818404116 134.36783883349264 H 0.0 **** 0.06
16354 H 76.66063902151457 149.30342299311766 135.43400769913325 H 0.0 **** 0.06
16355 H 78.38383136508382 149.3069130440627 135.8806133418571 H 0.0 **** 0.06
16356 C 67.34559894992184 52.561905175005876 103.40681198174912 C 0.0 **** -0.24
16357 H 66.32171940335603 52.26708395042304 103.17391711830783 H 0.0 **** 0.06
16358 H 67.49210939719802 52.54176807183303 104.48642673794836 H 0.0 **** 0.06
16359 H 67.52629862970097 53.570181576693955 103.03395251044662 H 0.0 **** 0.06
16360 H 68.0396628468433 51.868945851763755 102.93150836190051 H 0.0 **** 0.06
16361 C 144.91159345406354 25.20365601980299 134.55207386575893 C 0.0 **** -0.24
16362 H 144.242215110743 24.654856493824923 135.2149475989967 H 0.0 **** 0.06
16363 H 144.48342756842484 26.182272593271165 134.33345215175353 H 0.0 **** 0.06
16364 H 145.03943703131492 24.647741671188925 133.6235233301192 H 0.0 **** 0.06
16365 H 145.87866759623824 25.329741978247426 135.037421934669 H 0.0 **** 0.06
16366 C 0.0071083557170865674 155.01137926641897 10.183369118498433 C 0.0 **** -0.24
16367 H -0.030398549312366185 154.47879294218893 9.232738846066553 H 0.0 **** 0.06
16368 H -0.5573967838033553 155.94041412084067 10.101265190291372 H 0.0 **** 0.06
16369 H 1.044657446701457 155.23686019583937 10.43227095935066 H 0.0 **** 0.06
16370 H -0.427062255276784 154.38907131214646 10.96547238983186 H 0.0 **** 0.06
16371 C 2.5023292598108853 102.89494308879932 129.2863372362955 C 0.0 **** -0.24
16372 H 3.1613893052259954 103.42523273855551 128.59977583004965 H 0.0 **** 0.06
16373 H 2.4449484168009263 101.84545322794884 128.9964970292016 H 0.0 **** 0.06
16374 H 1.5076415905063243 103.33802807112374 129.24937828002982 H 0.0 **** 0.06
16375 H 2.8961682736249443 102.97160480831536 130.29959024258685 H 0.0 **** 0.06
16376 C 28.592458128672632 0.9568690662538444 126.92632823448119 C 0.0 **** -0.24
16377 H 29.34507401883171 1.1158017489540626 126.15415495385142 H 0.0 **** 0.06
16378 H 29.064667026292547 1.0007054695709527 127.90789534423465 H 0.0 **** 0.06
16379 H 28.131131865372765 -0.02104004184037933 126.78770746296019 H 0.0 **** 0.06
16380 H 27.82963519327729 1.7326984163712211 126.85581678043872 H 0.0 **** 0.06
16381 C 42.676807892031164 78.56650147198114 143.25869808043146 C 0.0 **** -0.24
16382 H 43.44088064607767 79.18604109165491 142.78953464250876 H 0.0 **** 0.06
16383 H 42.609712341321995 77.61374180440943 142.7336351755776 H 0.0 **** 0.06
16384 H 41.71522774603774 79.07846474800837 143.2093511939772 H 0.0 **** 0.06
16385 H 42.94154493147238 78.39036603888074 144.30079425354975 H 0.0 **** 0.06
16386 C 24.318913755810854 162.1348275800573 69.89354382484953 C 0.0 **** -0.24
16387 H 25.186845611190506 162.01383268525183 69.24547871957395 H 0.0 **** 0.06
16388 H 24.651717005198094 162.35570627104835 70.90837903177797 H 0.0 **** 0.06
16389 H 23.734595544568435 161.21512734482565 69.89427616688852 H 0.0 **** 0.06
16390 H 23.702848200805278 162.95555073710216 69.52627473474325 H 0.0 **** 0.06
16391 C 23.47495979500213 144.8096950403334 51.714249944709834 C 0.0 **** -0.24
16392 H 23.275676282962614 145.87458677038342 51.82996299798448 H 0.0 **** 0.06
16393 H 24.4062614190033 144.55671189801967 52.22205571818273 H 0.0 **** 0.06
16394 H 23.562108569707014 144.56969755040018 50.654246089566925 H 0.0 **** 0.06
16395 H 22.655792908335535 144.23778394253034 52.150734973105415 H 0.0 **** 0.06
16396 C 107.1248909359876 53.26023241659195 66.91941269412007 C 0.0 **** -0.24
16397 H 107.64522944212075 53.270696006591606 67.87685313178628 H 0.0 **** 0.06
16398 H 106.69811159613852 52.27090346586857 66.7496848912482 H 0.0 **** 0.06
16399 H 107.82870865909155 53.4937324741573 66.12080880105535 H 0.0 **** 0.06
16400 H 106.32744952691496 54.00332446111497 66.93121406967276 H 0.0 **** 0.06
16401 C 67.58259407379447 141.8187013641015 125.54204435078682 C 0.0 **** -0.24
16402 H 68.58421257473293 141.62938455952843 125.15471708323085 H 0.0 **** 0.06
16403 H 67.24863043550576 140.95701014924174 126.12066202833057 H 0.0 **** 0.06
16404 H 66.89753342613727 141.98607058717147 124.71081374919783 H 0.0 **** 0.06
16405 H 67.6017371740035 142.7018382162281 126.18113019550651 H 0.0 **** 0.06
16406 C 37.68050268866159 156.06635130795672 124.14303980847484 C 0.0 **** -0.24
16407 H 37.328188019140214 157.06499836905832 123.88469066714978 H 0.0 **** 0.06
16408 H 38.07154768166069 155.5774760027991 123.25143307430582 H 0.0 **** 0.06
16409 H 36.8530011823795 155.48214062144677 124.54518776280233 H 0.0 **** 0.06
16410 H 38.46940146641066 156.14188738601788 124.89218192507084 H 0.0 **** 0.06
16411 C 142.7892340727965 147.54416168145138 106.05610120150016 C 0.0 **** -0.24
16412 H 142.29867999775956 148.14788299059956 106.81936925673406 H 0.0 **** 0.06
16413 H 142.85005369527846 148.11154834583343 105.12739069582827 H 0.0 **** 0.06
16414 H 142.2142645021794 146.63280440941853 105.88932650961803 H 0.0 **** 0.06
16415 H 143.7945377075082 147.28406520453947 106.38904010246716 H 0.0 **** 0.06
16416 C 124.50974919114992 93.38850415690627 61.30213773071307 C 0.0 **** -0.24
16417 H 123.54055997810974 93.39222952829736 60.80347928667149 H 0.0 **** 0.06
16418 H 125.23351106209591 93.93130894159849 60.692598041053344 H 0.0 **** 0.06
16419 H 124.84542160443857 92.36025260217782 61.43614378286341 H 0.0 **** 0.06
16420 H 124.41860811258485 93.87077236813766 62.275382063802 H 0.0 **** 0.06
16421 C 159.7165471216287 123.82128942077276 24.016199203433615 C 0.0 **** -0.24
16422 H 159.40085644299307 124.16677485120135 25.00091545004372 H 0.0 **** 0.06
16423 H 158.83940250657295 123.67053374565415 23.386487425677302 H 0.0 **** 0.06
16424 H 160.2571837174849 122.88030975467316 24.117373266475283 H 0.0 **** 0.06
16425 H 160.36753372500863 124.56767238094082 23.560737041034088 H 0.0 **** 0.06
16426 C 125.22262917175527 13.358293782815508 151.85120126968326 C 0.0 **** -0.24
16427 H 125.62620935564755 14.311064278364313 152.19436782288275 H 0.0 **** 0.06
16428 H 124.76960438937795 12.831484130358206 152.69197831487963 H 0.0 **** 0.06
16429 H 126.02765062945832 12.753376183581622 151.4329991294542 H 0.0 **** 0.06
16430 H 124.4679784943097 13.538990786886359 151.0851224019843 H 0.0 **** 0.06
16431 C 34.618147755132526 103.31530281440843 32.13299831026376 C 0.0 **** -0.24
16432 H 33.7921295665536 102.7721995689694 31.675625789027265 H 0.0 **** 0.06
16433 H 34.2707122489185 103.81037717182949 33.03979421075718 H 0.0 **** 0.06
16434 H 34.994177117688395 104.06167701974266 31.43228413074229 H 0.0 **** 0.06
16435 H 35.417187120366066 102.61701081626322 32.38244818506365 H 0.0 **** 0.06
16436 C 75.54695690281582 36.4062675861491 92.20803895245771 C 0.0 **** -0.24
16437 H 75.71966436953183 37.452319472664485 92.46014294424965 H 0.0 **** 0.06
16438 H 74.7964037447109 35.99008616287509 92.87903805505773 H 0.0 **** 0.06
16439 H 76.4781701069908 35.84965833612124 92.3124274576668 H 0.0 **** 0.06
16440 H 75.19473105855731 36.33456812372455 91.17904478554496 H 0.0 **** 0.06
16441 C 8.15528607931563 4.840836744627211 145.698177907773 C 0.0 **** -0.24
16442 H 8.437817622277834 4.241013328280701 144.83325095101227 H 0.0 **** 0.06
16443 H 8.56946414713724 4.392692475932108 146.601279283287 H 0.0 **** 0.06
16444 H 7.069059814602241 4.878455886530162 145.77511379893497 H 0.0 **** 0.06
16445 H 8.546875219489465 5.851783004249853 145.58247794823956 H 0.0 **** 0.06
16446 C 48.45142351019558 17.198188510393578 97.08953652669308 C 0.0 **** -0.24
16447 H 49.215865528929385 17.450506530362922 96.35464478453551 H 0.0 **** 0.06
16448 H 47.710908490451345 16.541322309500252 96.63225960754465 H 0.0 **** 0.06
16449 H 47.964454710927555 18.11053376908977 97.43472979219064 H 0.0 **** 0.06
16450 H 48.91502371808883 16.69059180072974 97.93570689844145 H 0.0 **** 0.06
16451 C 107.12650914729124 73.01355124240953 7.329008674114931 C 0.0 **** -0.24
16452 H 106.87084084765769 73.26496253040217 8.358777564581146 H 0.0 **** 0.06
16453 H 108.17337287016699 73.25697246725724 7.146144449998445 H 0.0 **** 0.06
16454 H 106.49597031947658 73.58413256532914 6.6478166540699135 H 0.0 **** 0.06
16455 H 106.96654429217722 71.94791812915673 7.165411107860848 H 0.0 **** 0.06
16456 C 98.43473712129091 144.75449683671806 16.289244941381334 C 0.0 **** -0.24
16457 H 98.70317963697397 145.63337157971142 15.703932523313284 H 0.0 **** 0.06
16458 H 99.32691449020237 144.15541870534116 16.47416605983598 H 0.0 **** 0.06
16459 H 97.70471120273635 144.16018574313932 15.73984769481578 H 0.0 **** 0.06
16460 H 98.00477659960848 145.0695745996105 17.240543968735224 H 0.0 **** 0.06
16461 C 30.001048964656718 12.446198568359023 48.566710266624796 C 0.0 **** -0.24
16462 H 29.453742862222157 12.925914710338105 49.37852633435253 H 0.0 **** 0.06
16463 H 30.750196202730933 11.772538980953755 48.98277039831011 H 0.0 **** 0.06
16464 H 30.493255285803855 13.207948592191883 47.961646872833114 H 0.0 **** 0.06
16465 H 29.30715691479668 11.879816866819567 47.945883853633575 H 0.0 **** 0.06
16466 C 138.1985132158861 29.166532837115078 31.1761754536302 C 0.0 **** -0.24
16467 H 137.1633722013998 28.829855975922044 31.238357816627364 H 0.0 **** 0.06
16468 H 138.81468481581928 28.37150932833643 30.755003200951997 H 0.0 **** 0.06
16469 H 138.55965617743675 29.416875176344952 32.17366747361175 H 0.0 **** 0.06
16470 H 138.25540372658105 30.048027467354018 30.53799795043078 H 0.0 **** 0.06
16471 C 113.20699903343788 129.81021091583366 1.1871468720531198 C 0.0 **** -0.24
16472 H 113.08704380063494 128.733469164824 1.3038335371161622 H 0.0 **** 0.06
16473 H 112.25567512425846 130.2517220230588 0.8915194121101706 H 0.0 **** 0.06
16474 H 113.95453599323727 130.01106193344663 0.4202530113934131 H 0.0 **** 0.06
16475 H 113.53098807725922 130.24362211413106 2.1329463570958467 H 0.0 **** 0.06
16476 C 115.89118469811274 48.01218947571317 19.844480934443283 C 0.0 **** -0.24
16477 H 116.94572917422863 47.964532292560634 19.572330965291428 H 0.0 **** 0.06
16478 H 115.70579854500886 48.920554192823744 20.418902740852104 H 0.0 **** 0.06
16479 H 115.63187430044081 47.14154005668274 20.447002775396868 H 0.0 **** 0.06
16480 H 115.28320707064222 48.02246264677956 18.940313639653056 H 0.0 **** 0.06
16481 C 6.915347466360245 53.45843931544516 103.37816181552458 C 0.0 **** -0.24
16482 H 6.445929101353812 52.577504552091 103.8130481448832 H 0.0 **** 0.06
16483 H 7.991713281098512 53.41892949798975 103.54880031496256 H 0.0 **** 0.06
16484 H 6.5063080759305905 54.35498140618081 103.84388481195666 H 0.0 **** 0.06
16485 H 6.718009012644053 53.48350751703917 102.30635120571236 H 0.0 **** 0.06
16486 C 127.63908889928888 102.31145015866426 22.954360495544847 C 0.0 **** -0.24
16487 H 128.08342960724445 102.59906903204148 22.00137015853531 H 0.0 **** 0.06
16488 H 128.1795268093692 101.45833171396231 23.36369363678213 H 0.0 **** 0.06
16489 H 126.59491340992523 102.04130772183595 22.801127252960896 H 0.0 **** 0.06
16490 H 127.70019093595275 103.14846304634327 23.650789142388646 H 0.0 **** 0.06
16491 C 148.26190845914684 39.74212943854354 78.51306732160401 C 0.0 **** -0.24
16492 H 147.60394559456753 40.579153214834776 78.28058096346464 H 0.0 **** 0.06
16493 H 148.48830611256128 39.74324398429093 79.57950237797803 H 0.0 **** 0.06
16494 H 149.18754552556942 39.83895903237374 77.94449547238457 H 0.0 **** 0.06
16495 H 147.76786032683023 38.80768853258081 78.24684092685078 H 0.0 **** 0.06
16496 C 97.38240187248834 105.24735578318263 85.83973278363754 C 0.0 **** -0.24
16497 H 97.49772082620177 105.47145567481493 84.7793896195219 H 0.0 **** 0.06
16498 H 98.19469949280318 105.7110604745867 86.3995500711645 H 0.0 **** 0.06
16499 H 97.40820184387246 104.16794119445933 85.98716190550213 H 0.0 **** 0.06
16500 H 96.42823420858855 105.63921102593338 86.19165661885849 H 0.0 **** 0.06
16501 C 99.22066576172637 65.12599773636563 130.33023302038848 C 0.0 **** -0.24
16502 H 98.40988142404566 65.15917151315759 129.60242939560035 H 0.0 **** 0.06
16503 H 99.17245142136542 66.00821014147675 130.96876063354404 H 0.0 **** 0.06
16504 H 100.17735658887804 65.10730523055827 129.80747099894924 H 0.0 **** 0.06
16505 H 99.12350750583025 64.22846487666018 130.94126567330073 H 0.0 **** 0.06
16506 C 66.47849040196456 42.33425071808527 5.29338853316392 C 0.0 **** -0.24
16507 H 67.14396945569354 42.848699086118515 4.599500654125848 H 0.0 **** 0.06
16508 H 66.9685786577665 41.43417533964961 5.665565497483044 H 0.0 **** 0.06
16509 H 65.55878310373083 42.0598414964182 4.7767843145138045 H 0.0 **** 0.06
16510 H 66.24369150809451 42.99303426252989 6.12919267566474 H 0.0 **** 0.06
16511 C 29.732877610858623 12.51252011240453 129.89680822123486 C 0.0 **** -0.24
16512 H 30.35182985302606 13.353370817205956 130.2096165753374 H 0.0 **** 0.06
16513 H 29.5781369891356 12.555997670191175 128.8189979967571 H 0.0 **** 0.06
16514 H 28.769904332866304 12.561367069933567 130.4053289213004 H 0.0 **** 0.06
16515 H 30.232676190547522 11.578449748945161 130.15595843303706 H 0.0 **** 0.06
16516 C 137.41422031145896 18.448845648338647 149.66777630343586 C 0.0 **** -0.24
16517 H 137.48527149878493 17.38561775609179 149.89977430070218 H 0.0 **** 0.06
16518 H 136.64184898291268 18.605292157001713 148.91506396675896 H 0.0 **** 0.06
16519 H 138.37225322114176 18.800677672627046 149.28480890034677 H 0.0 **** 0.06
16520 H 137.15959514920488 19.001537205145553 150.57219596872432 H 0.0 **** 0.06
16521 C 148.0505053473506 157.41577174828828 144.13874476703552 C 0.0 **** -0.24
16522 H 148.16104905255037 156.3584243627239 143.89813418699475 H 0.0 **** 0.06
16523 H 147.35429075161235 157.52842766593855 144.96984027148832 H 0.0 **** 0.06
16524 H 147.66597863525962 157.94780898099611 143.26756424598432 H 0.0 **** 0.06
16525 H 149.01976966493214 157.827451710675 144.41765712998483 H 0.0 **** 0.06
16526 C 48.358536571573936 129.7264233611637 2.828393679685689 C 0.0 **** -0.24
16527 H 48.53316418992287 129.35506531570465 1.8192716794085584 H 0.0 **** 0.06
16528 H 47.43768915035413 130.3085849830574 2.846661183172955 H 0.0 **** 0.06
16529 H 49.19416735811521 130.35703788191927 3.1330826874104787 H 0.0 **** 0.06
16530 H 48.270027537753336 128.8839801987891 3.514190674251239 H 0.0 **** 0.06
16531 C 38.246225070186995 96.60356689285771 10.572826854114936 C 0.0 **** -0.24
16532 H 37.34588856705018 96.76015640595676 11.165565170743406 H 0.0 **** 0.06
16533 H 38.14086502823602 95.68837972099249 9.988687648289499 H 0.0 **** 0.06
16534 H 39.107115985880895 96.513920806557 11.236244748302909 H 0.0 **** 0.06
16535 H 38.392079645533414 97.44851884873503 9.900556474930767 H 0.0 **** 0.06
16536 C 66.61424611803254 29.024107184050287 141.92676067436344 C 0.0 **** -0.24
16537 H 65.94846507842217 29.71290907192855 141.4083348132836 H 0.0 **** 0.06
16538 H 67.3047325947914 28.578268241516184 141.20914100373918 H 0.0 **** 0.06
16539 H 66.02613483989249 28.23795837236858 142.40124993111624 H 0.0 **** 0.06
16540 H 67.17772649097547 29.564337821618217 142.686023155421 H 0.0 **** 0.06
16541 C 15.887216082840872 84.13443470687615 74.07956668048709 C 0.0 **** -0.24
16542 H 15.261949699827696 84.73611535378316 74.73971228978009 H 0.0 **** 0.06
16543 H 16.771905343836096 83.8011115803652 74.62183732574869 H 0.0 **** 0.06
16544 H 16.19134362950261 84.73327168122664 73.22145622732675 H 0.0 **** 0.06
16545 H 15.322810071385469 83.2672086195977 73.73638650490973 H 0.0 **** 0.06
16546 C 113.26096025141112 56.743810968104754 88.79482970443098 C 0.0 **** -0.24
16547 H 113.30157491783348 55.9628278642745 89.5538980058714 H 0.0 **** 0.06
16548 H 112.43378325257703 56.54584293649805 88.11288561743065 H 0.0 **** 0.06
16549 H 114.19780034345308 56.756206542376404 88.23711752898807 H 0.0 **** 0.06
16550 H 113.1126951808443 57.71040333256141 89.27639125628849 H 0.0 **** 0.06
16551 C 2.364314723798657 72.20148756879868 55.44105696997305 C 0.0 **** -0.24
16552 H 1.8571658963839468 72.59541039941048 56.32191378680825 H 0.0 **** 0.06
16553 H 3.195711122831881 72.85535564429213 55.17910773507609 H 0.0 **** 0.06
16554 H 1.6622293663583605 72.15277068478032 54.60933607902524 H 0.0 **** 0.06
16555 H 2.740972955220059 71.2013458481943 55.65780337121801 H 0.0 **** 0.06
16556 C 73.25786375227074 47.39169403305226 150.81621920909217 C 0.0 **** -0.24
16557 H 72.72716271537256 46.601031138224755 151.34593274538167 H 0.0 **** 0.06
16558 H 74.30335117516184 47.39738247970715 151.12481044710188 H 0.0 **** 0.06
16559 H 72.80378582686365 48.35477064922904 151.05154144443384 H 0.0 **** 0.06
16560 H 73.19616661534606 47.2136420988366 149.74245068675344 H 0.0 **** 0.06
16561 C 107.07369903137334 65.41016621047115 39.32989149930589 C 0.0 **** -0.24
16562 H 107.68652713865342 66.2550107064568 39.644653875236486 H 0.0 **** 0.06
16563 H 107.06321284548324 65.35509393713318 38.24077719076837 H 0.0 **** 0.06
16564 H 106.05679607742414 65.5428023136646 39.69708879569049 H 0.0 **** 0.06
16565 H 107.4897352946974 64.48943141850111 39.73689405175898 H 0.0 **** 0.06
16566 C 150.9552432863979 4.027801227221353 156.3611456610344 C 0.0 **** -0.24
16567 H 150.5373533636843 4.496731491668761 155.47097868795817 H 0.0 **** 0.06
16568 H 150.4967294509879 4.46113694876918 157.25017607657605 H 0.0 **** 0.06
16569 H 152.0316127191202 4.195909768993772 156.38868114595584 H 0.0 **** 0.06
16570 H 150.7555699575639 2.9560655547311896 156.33449797802837 H 0.0 **** 0.06
16571 C 40.76595335967174 16.67199841032579 70.88732362474428 C 0.0 **** -0.24
16572 H 41.27059557271488 15.736452229970858 70.64491806724085 H 0.0 **** 0.06
16573 H 40.96856985471915 17.405777809034866 70.1073549087915 H 0.0 **** 0.06
16574 H 41.133982710137744 17.045346777331375 71.84298007468313 H 0.0 **** 0.06
16575 H 39.69205869733477 16.49798770180024 70.95364389441474 H 0.0 **** 0.06
16576 C 84.15099788484537 127.31404277563934 9.614964646901228 C 0.0 **** -0.24
16577 H 84.14591038203963 126.22696733580142 9.544979522023851 H 0.0 **** 0.06
16578 H 84.83759568380032 127.72299026209237 8.873780277877358 H 0.0 **** 0.06
16579 H 84.47226659511097 127.61213188124634 10.612707169044626 H 0.0 **** 0.06
16580 H 83.14630820924981 127.6948032420205 9.427481255668567 H 0.0 **** 0.06
16581 C 155.8718337671091 1.2622826507002571 113.29748393743037 C 0.0 **** -0.24
16582 H 156.94214427089864 1.3489623584123365 113.1118178581714 H 0.0 **** 0.06
16583 H 155.43778227031888 0.5505798149525845 112.59508787177137 H 0.0 **** 0.06
16584 H 155.40041697753242 2.2367180522739005 113.16521621914416 H 0.0 **** 0.06
16585 H 155.70691748931927 0.9145463723921878 114.31738293453952 H 0.0 **** 0.06
16586 C 14.74988870396922 150.7938954524636 78.18503323897075 C 0.0 **** -0.24
16587 H 14.248809559628882 151.74948024908716 78.34104047380227 H 0.0 **** 0.06
16588 H 14.576120542727892 150.45456240723942 77.16434938127422 H 0.0 **** 0.06
16589 H 14.355295976326431 150.05812203924668 78.88612091845197 H 0.0 **** 0.06
16590 H 15.821267837939331 150.91576484156238 78.35079669090398 H 0.0 **** 0.06
16591 C 95.53681232902764 132.19018538044745 14.589815046721867 C 0.0 **** -0.24
16592 H 95.62024019733632 133.09233524466072 13.985157937957865 H 0.0 **** 0.06
16593 H 95.1546860032004 132.44782644061254 15.577012279598193 H 0.0 **** 0.06
16594 H 96.51915068950709 131.72763020692256 14.68916762319816 H 0.0 **** 0.06
16595 H 94.85354751630827 131.49094152168863 14.106570683811753 H 0.0 **** 0.06
16596 C 41.44997828742163 10.280633160328563 100.44576069601948 C 0.0 **** -0.24
16597 H 41.3666811195863 10.42225511211646 99.36847724056838 H 0.0 **** 0.06
16598 H 41.25082431092278 9.237960114701906 100.69149315758443 H 0.0 **** 0.06
16599 H 40.72596923116407 10.918142852025369 100.95262469923236 H 0.0 **** 0.06
16600 H 42.455896656527784 10.545360110103218 100.76989909229644 H 0.0 **** 0.06
16601 C 60.94248484875641 92.40941756135676 62.28394471641005 C 0.0 **** -0.24
16602 H 61.63140857993935 92.67983672184577 61.48474800937524 H 0.0 **** 0.06
16603 H 60.594845770804994 93.31332055934938 62.784856204445276 H 0.0 **** 0.06
16604 H 61.452771824902186 91.76869942946801 63.003378761541455 H 0.0 **** 0.06
16605 H 60.08961042555268 91.87628296392062 61.86308298760066 H 0.0 **** 0.06
16606 C 29.856648112638368 157.38798542247966 32.68381015768516 C 0.0 **** -0.24
16607 H 29.512492689229475 157.89633740885716 31.78249490066031 H 0.0 **** 0.06
16608 H 29.263143933278116 157.7198437129848 33.53649342863895 H 0.0 **** 0.06
16609 H 30.906173690794844 157.62670917645204 32.85621343324179 H 0.0 **** 0.06
16610 H 29.74466057756362 156.31194924585586 32.5592720985354 H 0.0 **** 0.06
16611 C 152.5702721799806 71.2435130469065 57.42822570577971 C 0.0 **** -0.24
16612 H 152.57889099699054 72.29708715389508 57.14828252617076 H 0.0 **** 0.06
16613 H 151.57819951048404 70.82880328525502 57.24841052087146 H 0.0 **** 0.06
16614 H 152.81913437759786 71.14636054585571 58.48503120220016 H 0.0 **** 0.06
16615 H 153.3042480677643 70.70329453995889 56.83055338188302 H 0.0 **** 0.06
16616 C 71.88789138799166 78.29156815883312 110.40275901790886 C 0.0 **** -0.24
16617 H 72.3086482934749 77.35573007613192 110.76873104553079 H 0.0 **** 0.06
16618 H 71.58075719290562 78.90804548767798 111.24891338506811 H 0.0 **** 0.06
16619 H 71.02190478502337 78.08013568909061 109.7741435383183 H 0.0 **** 0.06
16620 H 72.63879994322502 78.8231804361694 109.81878849990139 H 0.0 **** 0.06
16621 C 60.319780098907174 122.38288529085455 158.84830842596259 C 0.0 **** -0.24
16622 H 60.26612152795482 121.37253568084182 159.25244855809842 H 0.0 **** 0.06
16623 H 59.88055535401769 123.08251656412614 159.55969550207678 H 0.0 **** 0.06
16624 H 59.7705652496974 122.42833775261403 157.90727547566195 H 0.0 **** 0.06
16625 H 61.362602240905005 122.64914659216271 158.67311771688816 H 0.0 **** 0.06
16626 C 3.3970832794178136 135.9802319113224 27.583105343114255 C 0.0 **** -0.24
16627 H 3.639334285838629 135.04575802988074 28.088458533226742 H 0.0 **** 0.06
16628 H 4.148755207425495 136.73129536775298 27.828897726607465 H 0.0 **** 0.06
16629 H 2.416542972920496 136.3263266333874 27.910688951025293 H 0.0 **** 0.06
16630 H 3.3836416420140836 135.81795476886805 26.505729233426393 H 0.0 **** 0.06
16631 C 3.8589801784065685 132.80169819783293 129.67118985016933 C 0.0 **** -0.24
16632 H 4.3055771286527715 131.8970999575293 129.25829271108893 H 0.0 **** 0.06
16633 H 3.263915127453771 133.296125160374 128.904059230265 H 0.0 **** 0.06
16634 H 4.648483414120506 133.47421860381695 130.00929317000742 H 0.0 **** 0.06
16635 H 3.2203012874532533 132.53981449756822 130.5149119996358 H 0.0 **** 0.06
16636 C 102.43949208757275 110.32113430748498 7.5458533461571164 C 0.0 **** -0.24
16637 H 103.32567812778638 110.36792409409145 8.179252029623512 H 0.0 **** 0.06
16638 H 102.0441151392464 109.30461394595565 7.549066732933156 H 0.0 **** 0.06
16639 H 102.70571562296197 110.60472826950374 6.528456521731009 H 0.0 **** 0.06
16640 H 101.68262575810425 111.00599705871596 7.928468338679693 H 0.0 **** 0.06
16641 C 43.23348348883735 79.04916254388928 9.802283330197838 C 0.0 **** -0.24
16642 H 43.88340700411504 78.38429116242972 10.372752768700707 H 0.0 **** 0.06
16643 H 42.21251597957348 78.96528965441013 10.174375431825013 H 0.0 **** 0.06
16644 H 43.262208245572424 78.76839720768288 8.749284478788809 H 0.0 **** 0.06
16645 H 43.57843209055011 80.07674461691653 9.913330056551558 H 0.0 **** 0.06
16646 C 57.992731860507774 73.67425512436482 30.005734669688103 C 0.0 **** -0.24
16647 H 58.279928803407586 74.08513768030939 30.97348065349258 H 0.0 **** 0.06
16648 H 58.861502487940356 73.65123155615684 29.34805666336856 H 0.0 **** 0.06
16649 H 57.217051397862576 74.30010066455579 29.56201505053896 H 0.0 **** 0.06
16650 H 57.61010546427218 72.66233650938877 30.139968132319275 H 0.0 **** 0.06
16651 C 38.34533908950239 146.07034440681235 84.52241454139961 C 0.0 **** -0.24
16652 H 37.52365583272916 146.7807944965481 84.44063981548452 H 0.0 **** 0.06
16653 H 37.96655309472291 145.11900710528147 84.89732705695364 H 0.0 **** 0.06
16654 H 39.09486803193013 146.45930138415693 85.21052546570002 H 0.0 **** 0.06
16655 H 38.79573451161065 145.9210046095214 83.54086553114793 H 0.0 **** 0.06
16656 C 73.50321044777911 130.79902173087373 158.96714886456004 C 0.0 **** -0.24
16657 H 74.50992137061496 130.82734768044537 159.38469602333828 H 0.0 **** 0.06
16658 H 73.0569293303662 129.82400473773117 159.16147042190403 H 0.0 **** 0.06
16659 H 73.55230653280199 130.9701263578314 157.8922016055218 H 0.0 **** 0.06
16660 H 72.8962361009301 131.57580336364038 159.43197709762046 H 0.0 **** 0.06
16661 C 118.76327169363913 78.76407868780461 147.61716307925883 C 0.0 **** -0.24
16662 H 118.0423152148943 79.3603596982171 147.05725184500275 H 0.0 **** 0.06
16663 H 119.23188673702015 79.38483323302873 148.38095205396044 H 0.0 **** 0.06
16664 H 119.52662404987814 78.38521276400914 146.93673477155716 H 0.0 **** 0.06
16665 H 118.25131934060192 77.92705288132659 148.09091978345035 H 0.0 **** 0.06
16666 C 153.46052496242862 132.7228390026511 87.44144920648876 C 0.0 **** -0.24
16667 H 154.19924951335838 132.18206365473333 88.03178544371653 H 0.0 **** 0.06
16668 H 153.4046113207816 132.28763211188863 86.44296008518484 H 0.0 **** 0.06
16669 H 153.75130592172775 133.7704667312448 87.3656572317277 H 0.0 **** 0.06
16670 H 152.4855552828909 132.64946979593813 87.9250326953428 H 0.0 **** 0.06
16671 C 122.11385267024662 40.12338367409761 44.779197621509695 C 0.0 **** -0.24
16672 H 121.2915527542267 39.88861611842459 44.10224788730754 H 0.0 **** 0.06
16673 H 123.06082821718871 40.034610258054286 44.244208338306876 H 0.0 **** 0.06
16674 H 122.10322956959499 39.42731238659509 45.61755419795635 H 0.0 **** 0.06
16675 H 121.99964151022346 41.141677639353304 45.15008985629555 H 0.0 **** 0.06
16676 C 46.768060604930795 64.59534898553034 62.994244672985616 C 0.0 **** -0.24
16677 H 45.808434900598044 64.21103154510001 63.33825838347032 H 0.0 **** 0.06
16678 H 46.610727840809616 65.51555466752728 62.43171933490902 H 0.0 **** 0.06
16679 H 47.2468029633836 63.855188653016 62.35268305605493 H 0.0 **** 0.06
16680 H 47.40761594459603 64.79879537709934 63.85359350396479 H 0.0 **** 0.06
16681 C 117.93677076229017 16.173142721910864 52.48930867756064 C 0.0 **** -0.24
16682 H 118.36992716319855 15.276974506704775 52.04599062775287 H 0.0 **** 0.06
16683 H 117.14032835912144 16.54859078033556 51.8457396052512 H 0.0 **** 0.06
16684 H 118.7089435395541 16.935298383317182 52.59543979745371 H 0.0 **** 0.06
16685 H 117.52730450630364 15.931471872315953 53.47084496480676 H 0.0 **** 0.06
16686 C 99.07877383030132 161.4993619827019 14.345095042351943 C 0.0 **** -0.24
16687 H 98.83729628998717 162.52495257809264 14.064955077543829 H 0.0 **** 0.06
16688 H 99.38835955098767 160.94408730655843 13.459675044448915 H 0.0 **** 0.06
16689 H 98.19876822800941 161.0257292791615 14.781231584794142 H 0.0 **** 0.06
16690 H 99.88794711333307 161.50205903110148 15.074076607235781 H 0.0 **** 0.06
16691 C 17.234516213196912 160.62710943472638 80.9604563270837 C 0.0 **** -0.24
16692 H 18.11805919386461 160.14738094681414 80.53986600089769 H 0.0 **** 0.06
16693 H 16.63507629717097 159.8842294579884 81.48922193141053 H 0.0 **** 0.06
16694 H 16.642567276748338 161.06618163100228 80.15751865029546 H 0.0 **** 0.06
16695 H 17.541080105382832 161.40813685960416 81.65496877773256 H 0.0 **** 0.06
16696 C 151.90518641352216 157.52371859942963 158.10034913609033 C 0.0 **** -0.24
16697 H 150.82029495665978 157.62894908292228 158.11469950572484 H 0.0 **** 0.06
16698 H 152.3481081769615 158.40307844679285 157.632114745884 H 0.0 **** 0.06
16699 H 152.17649567576012 156.6338389248093 157.5310685819922 H 0.0 **** 0.06
16700 H 152.27478421572744 157.4297677513764 159.12081301033277 H 0.0 **** 0.06
16701 C 20.808898087201385 88.26682708484778 102.55155912560187 C 0.0 **** -0.24
16702 H 21.07037968553243 87.81655011189083 103.50912837950429 H 0.0 **** 0.06
16703 H 19.93295573056497 88.9039520303921 102.67706081175137 H 0.0 **** 0.06
16704 H 20.586406985682856 87.48144656077976 101.82937909885985 H 0.0 **** 0.06
16705 H 21.64508481298367 88.86594885354262 102.1904085526051 H 0.0 **** 0.06
16706 C 147.03403391725402 2.3484611114902236 60.505532654892306 C 0.0 **** -0.24
16707 H 146.1781231925119 1.7479063071975034 60.19593025758226 H 0.0 **** 0.06
16708 H 147.52617112734995 2.759331401620777 59.6233827468707 H 0.0 **** 0.06
16709 H 147.73684594555405 1.7230856454537005 61.055046623910826 H 0.0 **** 0.06
16710 H 146.69378452162516 3.162949603540582 61.14473660525137 H 0.0 **** 0.06
16711 C 106.10797714650118 117.12457197417905 142.5274814465991 C 0.0 **** -0.24
16712 H 106.57681701126916 117.26347800744588 143.50158213301816 H 0.0 **** 0.06
16713 H 105.07166465425581 116.8142711773495 142.6646554905041 H 0.0 **** 0.06
16714 H 106.6464957937078 116.35883831363105 141.97073515811468 H 0.0 **** 0.06
16715 H 106.13601848146982 118.0633597233932 141.97450667777312 H 0.0 **** 0.06
16716 C 54.71562630157899 125.44064113854165 103.8762418185922 C 0.0 **** -0.24
16717 H 54.303020310004044 126.29965697897865 104.40565465125806 H 0.0 **** 0.06
16718 H 55.64483054369347 125.72971579740465 103.38433003799304 H 0.0 **** 0.06
16719 H 54.000079071515515 125.09688986289098 103.12938569197863 H 0.0 **** 0.06
16720 H 54.91485706251365 124.63767164435251 104.58580784527123 H 0.0 **** 0.06
16721 C 56.78082780928668 114.06279157239663 23.763889617627456 C 0.0 **** -0.24
16722 H 56.41188192887432 113.20441274885442 24.326357949941666 H 0.0 **** 0.06
16723 H 55.94270425606027 114.70241185624829 23.487088858260904 H 0.0 **** 0.06
16724 H 57.28892452949816 113.71704144806068 22.864113864349747 H 0.0 **** 0.06
16725 H 57.48041193711967 114.62675678050738 24.38150938170736 H 0.0 **** 0.06
16726 C 15.559069634249397 155.80561843529546 131.16534761984548 C 0.0 **** -0.24
16727 H 15.614135024754944 154.7661885956377 131.4869300038035 H 0.0 **** 0.06
16728 H 16.200362916844938 156.41694529722434 131.8015341475554 H 0.0 **** 0.06
16729 H 14.530241772172928 156.15579284237606 131.24241213132163 H 0.0 **** 0.06
16730 H 15.893979237586564 155.8835482161149 130.1307252828421 H 0.0 **** 0.06
16731 C 136.6598777904627 57.21653111795774 51.14871710461425 C 0.0 **** -0.24
16732 H 135.7459790819018 57.80706699085897 51.086096165203415 H 0.0 **** 0.06
16733 H 136.8163103758837 56.89784597219352 52.17956068980459 H 0.0 **** 0.06
16734 H 137.50598121831115 57.82103041188657 50.821743936690225 H 0.0 **** 0.06
16735 H 136.56997995178034 56.33985091797632 50.50595034079234 H 0.0 **** 0.06
16736 C 118.27487216944317 98.48780416845827 23.156347390045617 C 0.0 **** -0.24
16737 H 118.53912216194149 98.75556542495363 22.133822732118766 H 0.0 **** 0.06
16738 H 118.01928233764377 97.42846342970594 23.199578537517162 H 0.0 **** 0.06
16739 H 117.41939041287563 99.08098197864726 23.47891660006983 H 0.0 **** 0.06
16740 H 119.1217178294855 98.68423545306115 23.814526742102757 H 0.0 **** 0.06
16741 C 121.22258999037362 96.27586857049562 22.051421105471945 C 0.0 **** -0.24
16742 H 121.03607712625106 95.43036830364237 21.38939988151111 H 0.0 **** 0.06
16743 H 122.29558462868985 96.37497095649591 22.219902920745312 H 0.0 **** 0.06
16744 H 120.71893691862394 96.10991829843668 23.002859961268655 H 0.0 **** 0.06
16745 H 120.84128702989565 97.18731369167179 21.592159015328974 H 0.0 **** 0.06
16746 C 120.0283775466059 141.33198219148983 94.23490440419067 C 0.0 **** -0.24
16747 H 120.0772596217482 141.61279417899232 95.28688587765299 H 0.0 **** 0.06
16748 H 119.8346072307136 140.2618481879377 94.15454789926048 H 0.0 **** 0.06
16749 H 120.97585428761226 141.5678689675027 93.75075762942146 H 0.0 **** 0.06
16750 H 119.22403964579462 141.8842940089653 93.74824941778172 H 0.0 **** 0.06
16751 C 54.42826062779024 103.56465558256585 157.406524534759 C 0.0 **** -0.24
16752 H 54.03704866646204 104.41668583338245 156.85175388954082 H 0.0 **** 0.06
16753 H 53.71970768387018 103.28224936828997 158.18590912921383 H 0.0 **** 0.06
16754 H 55.38153661011414 103.83497160290636 157.86278768614022 H 0.0 **** 0.06
16755 H 54.57597185248278 102.7255892382959 156.7275820622039 H 0.0 **** 0.06
16756 C 26.905633787677232 1.961755179274931 130.7405701597079 C 0.0 **** -0.24
16757 H 26.067870484217934 1.9725124672501053 130.04429166388888 H 0.0 **** 0.06
16758 H 27.722897693187917 1.3779712738331185 130.31639692523572 H 0.0 **** 0.06
16759 H 26.589442943094895 1.5127491230767731 131.68187444269182 H 0.0 **** 0.06
16760 H 27.2427476905236 2.9824421700437256 130.9198161455388 H 0.0 **** 0.06
16761 C 160.48951064227217 25.54819597942432 57.99442741065258 C 0.0 **** -0.24
16762 H 160.4312810058907 25.004793077215766 57.051515728205885 H 0.0 **** 0.06
16763 H 161.494536920203 25.452216817997822 58.40613611595596 H 0.0 **** 0.06
16764 H 159.76678079693684 25.13406353514543 58.697240853729014 H 0.0 **** 0.06
16765 H 160.26689668966128 26.60174479432277 57.8208450802271 H 0.0 **** 0.06
16766 C 92.86731571699063 121.13630011905127 75.35219853157662 C 0.0 **** -0.24
16767 H 92.12960052121001 121.84509673678446 74.97714056826365 H 0.0 **** 0.06
16768 H 93.50635988578559 121.63062142779819 76.08484161797418 H 0.0 **** 0.06
16769 H 93.47617187753188 120.77449408702051 74.5237521411845 H 0.0 **** 0.06
16770 H 92.35775106206334 120.29618772838506 75.8234796289758 H 0.0 **** 0.06
16771 C 115.51466239081782 149.7559941754601 15.027379756844454 C 0.0 **** -0.24
16772 H 115.15293019800731 149.2353726013638 15.91352580829232 H 0.0 **** 0.06
16773 H 115.49862946078048 150.83084976544973 15.20541974283222 H 0.0 **** 0.06
16774 H 114.87203872019063 149.51886909548176 14.178745319243767 H 0.0 **** 0.06
16775 H 116.53414031573254 149.43728720323753 14.810210510723728 H 0.0 **** 0.06
16776 C 31.67346204991719 130.51518219636503 95.69170614881311 C 0.0 **** -0.24
16777 H 32.53864736360907 130.74353281000353 96.31308541052591 H 0.0 **** 0.06
16778 H 31.955957402452498 129.78980582672835 94.92905659679856 H 0.0 **** 0.06
16779 H 31.319813191623666 131.42759179359118 95.21188737234834 H 0.0 **** 0.06
16780 H 30.87890676498438 130.1000760704818 96.31198968705843 H 0.0 **** 0.06
16781 C 30.501758188062922 96.87078257435621 60.8930385938482 C 0.0 **** -0.24
16782 H 30.312548420419034 97.65903950817264 60.16522509535234 H 0.0 **** 0.06
16783 H 31.459849331885124 96.39676309673513 60.67436801575053 H 0.0 **** 0.06
16784 H 29.707645205426587 96.12636563630195 60.83802187003391 H 0.0 **** 0.06
16785 H 30.5290214324323 97.29989484657202 61.89539595251705 H 0.0 **** 0.06
16786 C 106.19539383396236 70.72903228521794 22.950494715236154 C 0.0 **** -0.24
16787 H 105.46555338125455 70.91945592547027 23.737301301020125 H 0.0 **** 0.06
16788 H 107.1939854034014 70.97321114105375 23.31430984952624 H 0.0 **** 0.06
16789 H 105.9632099966401 71.34633617280558 22.08251347126192 H 0.0 **** 0.06
16790 H 106.1579048476556 69.67620168918273 22.66839861792853 H 0.0 **** 0.06
16791 C 64.34524233546546 48.93293162570576 136.8982716666397 C 0.0 **** -0.24
16792 H 63.54454369904988 48.567966988654845 136.25525661727823 H 0.0 **** 0.06
16793 H 65.30227980992845 48.56302274603401 136.53069236628534 H 0.0 **** 0.06
16794 H 64.18391569074726 48.577054632835086 137.91630612810502 H 0.0 **** 0.06
16795 H 64.34845794236736 50.02276866577765 136.89067343426268 H 0.0 **** 0.06
16796 C 145.23244433882945 125.82150138911845 90.67854564884813 C 0.0 **** -0.24
16797 H 145.0335691403137 125.40079627310422 91.66445017275153 H 0.0 **** 0.06
16798 H 144.9622588323611 125.09328498263869 89.91234620907926 H 0.0 **** 0.06
16799 H 146.29252211767712 126.06247039278537 90.5938702386392 H 0.0 **** 0.06
16800 H 144.64230401089068 126.72767184580323 90.54375196607552 H 0.0 **** 0.06
16801 C 80.47505221255918 94.92423758372713 128.18274844463892 C 0.0 **** -0.24
16802 H 79.77767733248366 95.74314212016773 128.00340652858316 H 0.0 **** 0.06
16803 H 81.34240379261843 95.29919473581221 128.72615090033912 H 0.0 **** 0.06
16804 H 80.79548113199051 94.50632292184959 127.22895367258926 H 0.0 **** 0.06
16805 H 79.9828275516156 94.15067358817475 128.7723707738084 H 0.0 **** 0.06
16806 C 105.814743684316 162.41417192337695 156.47623994783615 C 0.0 **** -0.24
16807 H 105.16240040172664 161.61730847213838 156.83384132828144 H 0.0 **** 0.06
16808 H 106.01110934683877 163.11448514332008 157.2891168307051 H 0.0 **** 0.06
16809 H 105.32994336762786 162.93930846271897 155.65340453505843 H 0.0 **** 0.06
16810 H 106.75466950101617 161.98556937207985 156.13089357474334 H 0.0 **** 0.06
16811 C 54.02634749873914 67.57350251195808 37.10809376513521 C 0.0 **** -0.24
16812 H 53.16612957291099 68.065048868926 36.65327273924976 H 0.0 **** 0.06
16813 H 54.93864821904715 67.91296545274375 36.61917238364174 H 0.0 **** 0.06
16814 H 53.930928555732706 66.49428058716342 36.992110605332044 H 0.0 **** 0.06
16815 H 54.06694336312569 67.82245737046685 38.168788974983784 H 0.0 **** 0.06
16816 C 145.4879875825738 13.627074952307623 20.899467377350547 C 0.0 **** -0.24
16817 H 145.32076688990134 12.558115002868306 21.03251898218145 H 0.0 **** 0.06
16818 H 145.32903070183374 14.1399254639976 21.847617098408996 H 0.0 **** 0.06
16819 H 144.79114009470442 14.013012436995382 20.155789572558 H 0.0 **** 0.06
16820 H 146.51064400081378 13.795106383694701 20.56141242406676 H 0.0 **** 0.06
16821 C 87.53632082587998 113.86184656013504 156.52646427762187 C 0.0 **** -0.24
16822 H 86.93539987051261 112.96453775283169 156.67670338017987 H 0.0 **** 0.06
16823 H 88.59351491150836 113.59668968533916 156.54662267954004 H 0.0 **** 0.06
16824 H 87.3247782269063 114.57687207068093 157.32060095390455 H 0.0 **** 0.06
16825 H 87.29027119690132 114.30538681438176 155.56170395676622 H 0.0 **** 0.06
16826 C 21.298917110682538 51.20938361737308 52.904990616341934 C 0.0 **** -0.24
16827 H 21.308030219295283 50.120647301343865 52.850556710624005 H 0.0 **** 0.06
16828 H 20.37906974302048 51.587861882315565 52.45961115141057 H 0.0 **** 0.06
16829 H 22.15652462636556 51.60693532956577 52.361127694287674 H 0.0 **** 0.06
16830 H 21.354260662066324 51.52116126773575 53.94819417137431 H 0.0 **** 0.06
16831 C 30.116946442301128 121.51132958598637 7.405486755477568 C 0.0 **** -0.24
16832 H 30.3655087973562 120.83976680976767 6.583795180269135 H 0.0 **** 0.06
16833 H 30.18939822942997 122.54500415193874 7.065515399785937 H 0.0 **** 0.06
16834 H 30.812994021009132 121.34978731013425 8.229158258371172 H 0.0 **** 0.06
16835 H 29.10031593390147 121.30976029069481 7.7443807095384045 H 0.0 **** 0.06
16836 C 130.37325618421482 93.72798354921142 122.07542334198897 C 0.0 **** -0.24
16837 H 129.59655128508413 94.41486395324955 121.74020006350796 H 0.0 **** 0.06
16838 H 130.39369129891836 92.85635763294385 121.42213972159522 H 0.0 **** 0.06
16839 H 130.16131509493255 93.41270077690382 123.0967218204255 H 0.0 **** 0.06
16840 H 131.340511735743 94.23001266148097 122.04292193274799 H 0.0 **** 0.06
16841 C 96.96149190103856 17.30782811149402 129.85710094040604 C 0.0 **** -0.24
16842 H 96.05250821039165 16.735406739948132 129.6697154888074 H 0.0 **** 0.06
16843 H 97.07648223261245 18.068628264562108 129.0839423161235 H 0.0 **** 0.06
16844 H 97.82139343477053 16.638672075464 129.83917358355512 H 0.0 **** 0.06
16845 H 96.89428098640326 17.78848942600297 130.83269318431627 H 0.0 **** 0.06
16846 C 9.19098667476738 145.80662723713954 85.93298682209569 C 0.0 **** -0.24
16847 H 9.281806884704444 145.05931826082877 86.72083377345595 H 0.0 **** 0.06
16848 H 8.922816907671361 145.31577762257882 84.99713880845276 H 0.0 **** 0.06
16849 H 10.142521338963057 146.3242652362024 85.81197220338451 H 0.0 **** 0.06
16850 H 8.417417237772206 146.5263387871442 86.20101941503682 H 0.0 **** 0.06
16851 C 65.2967355429598 2.5567476706404477 75.20440945229691 C 0.0 **** -0.24
16852 H 64.7297983838707 3.144826790885361 74.48246342058216 H 0.0 **** 0.06
16853 H 66.32978073354774 2.9057760206111425 75.2242523376966 H 0.0 **** 0.06
16854 H 65.27391663564025 1.5066395723963524 74.91576765197752 H 0.0 **** 0.06
16855 H 64.85495792861587 2.671974307184996 76.19382756219579 H 0.0 **** 0.06
16856 C 158.99209808580585 97.63088246180826 33.390391869681494 C 0.0 **** -0.24
16857 H 159.82070081619835 97.65471746826108 34.0992714861203 H 0.0 **** 0.06
16858 H 159.1821245924287 96.86631404716925 32.637393921935626 H 0.0 **** 0.06
16859 H 158.89945457105395 98.60319405057783 32.90709776394792 H 0.0 **** 0.06
16860 H 158.06842561155904 97.39868083851744 33.919868405703525 H 0.0 **** 0.06
16861 C 48.58225551047694 61.16146903130934 127.93905115938969 C 0.0 **** -0.24
16862 H 47.554072616671846 61.48916958938294 128.0881353535338 H 0.0 **** 0.06
16863 H 48.73084971001096 60.19698499188466 128.4246962553583 H 0.0 **** 0.06
16864 H 49.263307078634654 61.89434980120713 128.3703322275162 H 0.0 **** 0.06
16865 H 48.781235916547814 61.06476343628604 126.87093518556108 H 0.0 **** 0.06
16866 C 161.12249489122428 41.96818170982016 155.6612145264478 C 0.0 **** -0.24
16867 H 160.036464878074 41.97456224448922 155.74887254129794 H 0.0 **** 0.06
16868 H 161.40986605237026 42.361994037177766 154.6860276011348 H 0.0 **** 0.06
16869 H 161.4892711934348 40.94708968741196 155.76457348257412 H 0.0 **** 0.06
16870 H 161.55400053743043 42.590229330497436 156.44611867625872 H 0.0 **** 0.06
16871 C 161.64194024749895 49.550537711992476 161.81914823647995 C 0.0 **** -0.24
16872 H 162.16376757614296 48.6321404241683 162.08825141161566 H 0.0 **** 0.06
16873 H 160.97729420241063 49.356200913494334 160.9762527764753 H 0.0 **** 0.06
16874 H 162.36814092733619 50.313619700755325 161.53975014137274 H 0.0 **** 0.06
16875 H 161.05718933919928 49.899231791285544 162.66965375283863 H 0.0 **** 0.06
16876 C 160.31392398995868 141.78745866616586 111.86200904810863 C 0.0 **** -0.24
16877 H 160.11674733960024 140.8972403685589 112.45771245632446 H 0.0 **** 0.06
16878 H 159.40698181205508 142.39065235988443 111.79699223868309 H 0.0 **** 0.06
16879 H 160.6264680030093 141.49272085671254 110.85992385292536 H 0.0 **** 0.06
16880 H 161.10551578196782 142.3711784824982 112.33193507314454 H 0.0 **** 0.06
16881 C 90.31800909021493 115.03834682815494 61.21528015902727 C 0.0 **** -0.24
16882 H 90.31579970368699 115.12975785096839 62.30172758911306 H 0.0 **** 0.06
16883 H 90.04438221869225 115.99497429990814 60.770399201821974 H 0.0 **** 0.06
16884 H 89.599372729464 114.27695310091494 60.91386483747401 H 0.0 **** 0.06
16885 H 91.31390614093237 114.75205222458314 60.87774600037932 H 0.0 **** 0.06
16886 C 11.78649899525115 91.6344671631044 147.11128287578458 C 0.0 **** -0.24
16887 H 11.219590884878698 91.40153132645658 146.20961610654797 H 0.0 **** 0.06
16888 H 12.71104699109543 92.14274489431175 146.8380035340189 H 0.0 **** 0.06
16889 H 12.021515116196213 90.71114150605764 147.64119043735224 H 0.0 **** 0.06
16890 H 11.191724347930887 92.28189046096348 147.75676571231494 H 0.0 **** 0.06
16891 C 9.205595718989883 161.67489181386313 104.23380062191421 C 0.0 **** -0.24
16892 H 8.717759456623241 162.62949917491582 104.04154983142726 H 0.0 **** 0.06
16893 H 9.227710387922912 161.48742934095662 105.30753645152319 H 0.0 **** 0.06
16894 H 10.226042874887241 161.70422089591108 103.84961796590929 H 0.0 **** 0.06
16895 H 8.652761513347514 160.87732062141458 103.7369662383683 H 0.0 **** 0.06
16896 C 95.65990251966535 42.93478519192051 34.955118788530086 C 0.0 **** -0.24
16897 H 95.65777121702922 43.487597543090374 34.01541253948176 H 0.0 **** 0.06
16898 H 96.21688986733115 42.00569186676 34.827354967315785 H 0.0 **** 0.06
16899 H 94.63425587022886 42.707595975946944 35.24543389131922 H 0.0 **** 0.06
16900 H 96.13227218397284 43.53875107784452 35.729980047917195 H 0.0 **** 0.06
16901 C 12.52086966012979 37.89643274251375 17.745165033302328 C 0.0 **** -0.24
16902 H 13.39055005423819 37.73836759977132 18.38267994932243 H 0.0 **** 0.06
16903 H 11.702187375883113 38.30096358507757 18.34084866542176 H 0.0 **** 0.06
16904 H 12.215500656165744 36.946650547297736 17.304991841531177 H 0.0 **** 0.06
16905 H 12.774001895187041 38.5986980612295 16.951538975759973 H 0.0 **** 0.06
16906 C 10.24299328214434 24.93656292978295 80.74130719712382 C 0.0 **** -0.24
16907 H 10.187948341384924 23.90166378711848 80.40461497273846 H 0.0 **** 0.06
16908 H 11.283209975759405 25.205521371091038 80.9212888719238 H 0.0 **** 0.06
16909 H 9.673030880894487 25.048712453735902 81.66381151245714 H 0.0 **** 0.06
16910 H 9.826093298944642 25.590099481704158 79.97523590440967 H 0.0 **** 0.06
16911 C 118.7950121699576 36.46939452496241 140.17932762531143 C 0.0 **** -0.24
16912 H 118.36432701477128 37.343723910051835 140.6676065282919 H 0.0 **** 0.06
16913 H 118.0721986423498 36.052766750798384 139.47661017800044 H 0.0 **** 0.06
16914 H 119.04602628327234 35.720756268036936 140.93038921716368 H 0.0 **** 0.06
16915 H 119.69760552305752 36.76107325708638 139.64204313656904 H 0.0 **** 0.06
16916 C 8.59289769721073 41.01823563557082 36.59385011298831 C 0.0 **** -0.24
16917 H 9.194153029661607 41.77832776773161 37.09202459178344 H 0.0 **** 0.06
16918 H 8.141431436476694 41.44197510886299 35.6958584758834 H 0.0 **** 0.06
16919 H 7.807553003606472 40.67651259663957 37.26882193740289 H 0.0 **** 0.06
16920 H 9.227098421024152 40.17577508208295 36.318896486043926 H 0.0 **** 0.06
16921 C 110.35976426561476 91.31184853271472 40.39177087535289 C 0.0 **** -0.24
16922 H 110.06400549641779 91.65124315768736 39.3991143926371 H 0.0 **** 0.06
16923 H 109.64382183637497 90.57260367135758 40.75135999738778 H 0.0 **** 0.06
16924 H 110.38085771413452 92.16086845175619 41.074423111130784 H 0.0 **** 0.06
16925 H 111.35266594244987 90.86245968695864 40.34026502694745 H 0.0 **** 0.06
16926 C 73.20272449019029 137.56523675036186 72.0941827202218 C 0.0 **** -0.24
16927 H 72.9302147899848 136.9364045558105 71.24660830493833 H 0.0 **** 0.06
16928 H 73.67714789573625 138.47646507305973 71.73202365852833 H 0.0 **** 0.06
16929 H 73.8971048554705 137.02425602733217 72.73791453946991 H 0.0 **** 0.06
16930 H 72.30640696078683 137.82066564528833 72.65998113113069 H 0.0 **** 0.06
16931 C 162.05355880853665 127.02708138581639 107.71657383106498 C 0.0 **** -0.24
16932 H 162.32788252711666 127.44967044959927 108.68281749452575 H 0.0 **** 0.06
16933 H 161.7872033342327 127.83151524138017 107.03084590056969 H 0.0 **** 0.06
16934 H 161.20250565715494 126.35740986988077 107.8408012541262 H 0.0 **** 0.06
16935 H 162.89833522056347 126.46945850144292 107.31208601741443 H 0.0 **** 0.06
16936 C 25.83565171934969 146.4438695088031 48.998019639074414 C 0.0 **** -0.24
16937 H 24.82846316790284 146.30651355392297 48.60528384704685 H 0.0 **** 0.06
16938 H 25.921580280504024 145.94262896292042 49.9623246041931 H 0.0 **** 0.06
16939 H 26.036139822385174 147.50820417330058 49.12187885642231 H 0.0 **** 0.06
16940 H 26.5573812519483 146.01753818379575 48.30093861563785 H 0.0 **** 0.06
16941 C 92.64854036726017 73.80312776034737 10.705283721379885 C 0.0 **** -0.24
16942 H 93.03311528919879 73.50755439451444 11.681632728297728 H 0.0 **** 0.06
16943 H 93.48105528672244 73.96318059146478 10.020098448416604 H 0.0 **** 0.06
16944 H 92.07638392939461 74.72624612110502 10.805180670427575 H 0.0 **** 0.06
16945 H 92.00239881769029 73.01564428130104 10.316777945296394 H 0.0 **** 0.06
16946 C 108.59677254112302 118.39734973384748 84.44848877307788 C 0.0 **** -0.24
16947 H 108.8602377368818 118.64878378547664 85.4756342598001 H 0.0 **** 0.06
16948 H 108.63580783869554 117.31550246095182 84.31752080453549 H 0.0 **** 0.06
16949 H 109.30171609903795 118.87119112069587 83.76633429127178 H 0.0 **** 0.06
16950 H 107.588599123591 118.75276528228179 84.234827797343 H 0.0 **** 0.06
16951 C 115.84458030590238 5.469748068725551 154.82036692163203 C 0.0 **** -0.24
16952 H 116.22807983906475 4.578622368358992 154.32375344914595 H 0.0 **** 0.06
16953 H 116.68045457745075 6.077532541644416 155.16851075463046 H 0.0 **** 0.06
16954 H 115.22956542459994 5.174635174374714 155.67042981720732 H 0.0 **** 0.06
16955 H 115.242861947416 6.046787838773554 154.11860844557054 H 0.0 **** 0.06
16956 C 118.05291297868843 61.684980320669396 159.5486043300803 C 0.0 **** -0.24
16957 H 118.7359629791396 60.84176756623032 159.6582257157683 H 0.0 **** 0.06
16958 H 118.62662102769335 62.61010218934125 159.48664885831423 H 0.0 **** 0.06
16959 H 117.38674126043497 61.7269493170149 160.41001868178324 H 0.0 **** 0.06
16960 H 117.46467554153932 61.55924774626311 158.6397336646897 H 0.0 **** 0.06
16961 C 75.92181420027515 110.59735538226585 37.81601302328974 C 0.0 **** -0.24
16962 H 74.87767057386742 110.5863197893139 38.130215487577345 H 0.0 **** 0.06
16963 H 76.04617363606738 109.94716135380065 36.94921814807044 H 0.0 **** 0.06
16964 H 76.54904554947319 110.23944066726332 38.631770164517604 H 0.0 **** 0.06
16965 H 76.21162334354543 111.61449023605113 37.55350743044477 H 0.0 **** 0.06
16966 C 152.78548558497675 44.63386086727621 11.077438895682434 C 0.0 **** -0.24
16967 H 153.67210042527702 45.19578545571407 11.37329321149548 H 0.0 **** 0.06
16968 H 152.0809200859745 44.602685428076384 11.909052647119722 H 0.0 **** 0.06
16969 H 153.0733943636193 43.61782012140368 10.806376888009794 H 0.0 **** 0.06
16970 H 152.31753075705072 45.12006538044008 10.22142469757955 H 0.0 **** 0.06
16971 C 16.54997554092452 73.94223379533659 95.30261947703164 C 0.0 **** -0.24
16972 H 17.362522845380965 74.12327373104287 96.00669425612193 H 0.0 **** 0.06
16973 H 15.62147747671554 74.34480506283643 95.70876551748552 H 0.0 **** 0.06
16974 H 16.441530317129036 72.86922132625267 95.14091367743339 H 0.0 **** 0.06
16975 H 16.774882203949574 74.43141634404452 94.35540500682765 H 0.0 **** 0.06
16976 C 122.18493307453366 104.7980569677886 19.096508140379726 C 0.0 **** -0.24
16977 H 121.3585086268451 104.91483196223405 19.79775566920214 H 0.0 **** 0.06
16978 H 122.8637097142423 105.6460236884144 19.190127494765328 H 0.0 **** 0.06
16979 H 121.79532737652562 104.75379046613037 18.0796754497633 H 0.0 **** 0.06
16980 H 122.7225893554097 103.87552491894746 19.319741773285358 H 0.0 **** 0.06
16981 C 117.94817925027462 48.35978116628701 73.95221542281318 C 0.0 **** -0.24
16982 H 118.85978071194648 47.91242448986277 74.3501660196564 H 0.0 **** 0.06
16983 H 117.11746828715002 47.66687829222985 74.07926543461252 H 0.0 **** 0.06
16984 H 118.084009668769 48.5767846578497 72.8931061686111 H 0.0 **** 0.06
16985 H 117.73539891753256 49.285456463743884 74.4879426494163 H 0.0 **** 0.06
16986 C 145.47880466467677 34.38280789252758 160.04667756446975 C 0.0 **** -0.24
16987 H 145.5298613124439 33.44793670644208 159.4891195668327 H 0.0 **** 0.06
16988 H 146.31613103681715 35.021223163671266 159.7631985130431 H 0.0 **** 0.06
16989 H 145.52798614035763 34.17262713735977 161.11535015475414 H 0.0 **** 0.06
16990 H 144.5406891565024 34.8902700802646 159.8191642360007 H 0.0 **** 0.06
16991 C 74.96541038769921 117.29756145704869 133.12444478188377 C 0.0 **** -0.24
16992 H 74.16067733512588 116.60078385498687 133.35806312508717 H 0.0 **** 0.06
16993 H 74.73800922587675 118.27242455109348 133.55804779743517 H 0.0 **** 0.06
16994 H 75.06108165941245 117.39379230237759 132.0429345011424 H 0.0 **** 0.06
16995 H 75.901416082595 116.92387368616039 133.53991518136624 H 0.0 **** 0.06
16996 C 114.65466437924152 88.22972460487887 56.447071933005134 C 0.0 **** -0.24
16997 H 114.8158216781533 89.25556317911236 56.7785088085661 H 0.0 **** 0.06
16998 H 113.9738171849898 88.22648070654617 55.59541739356385 H 0.0 **** 0.06
16999 H 114.2211382412537 87.64838238049026 57.26120348269002 H 0.0 **** 0.06
17000 H 115.60667172085098 87.78920600867167 56.15318215283048 H 0.0 **** 0.06
17001 C 92.33933067439006 116.66032527058849 17.92895314947839 C 0.0 **** -0.24
17002 H 92.89337823674492 115.93112148537247 18.519309794055374 H 0.0 **** 0.06
17003 H 91.56878582522631 117.11922476313418 18.549411675998954 H 0.0 **** 0.06
17004 H 91.87222217285597 116.16064806762492 17.080459078951833 H 0.0 **** 0.06
17005 H 93.02138266516693 117.4292162066373 17.56781380345666 H 0.0 **** 0.06
17006 C 43.11398901590353 127.75510684843297 103.99077970251426 C 0.0 **** -0.24
17007 H 42.808496575083126 127.521814568385 105.0116161191676 H 0.0 **** 0.06
17008 H 42.7612664315626 126.97250437824019 103.31873653372404 H 0.0 **** 0.06
17009 H 44.20028378253379 127.81484604374077 103.94221325413162 H 0.0 **** 0.06
17010 H 42.683110735995186 128.7115587579631 103.69301882660858 H 0.0 **** 0.06
17011 C 150.70504500264843 145.24323216451188 38.5177401626419 C 0.0 **** -0.24
17012 H 150.306230702507 144.22939600863805 38.49801112514966 H 0.0 **** 0.06
17013 H 151.4660039454318 145.31999505890155 39.29500384451502 H 0.0 **** 0.06
17014 H 149.8990823915977 145.94712666224822 38.72700956729807 H 0.0 **** 0.06
17015 H 151.14918446925097 145.4774771901336 37.55006445720025 H 0.0 **** 0.06
17016 C 12.482763597243945 123.4323000070737 133.58263675953154 C 0.0 **** -0.24
17017 H 12.603937099305767 122.96118679289424 134.55844370749446 H 0.0 **** 0.06
17018 H 12.139312456917878 122.69013331578634 132.86197957827054 H 0.0 **** 0.06
17019 H 13.438528732833163 123.84171040745454 133.25672118442012 H 0.0 **** 0.06
17020 H 11.74946378095973 124.23436456746009 133.65667478018653 H 0.0 **** 0.06
17021 C 150.38187653706208 33.36429108784802 83.12008119880377 C 0.0 **** -0.24
17022 H 149.3244635608075 33.609467674784185 83.21850421085989 H 0.0 **** 0.06
17023 H 150.72527244284038 32.86747125828555 84.02817106399114 H 0.0 **** 0.06
17024 H 150.95349071441157 34.27921822856695 82.96743000751098 H 0.0 **** 0.06
17025 H 150.52309925124638 32.700829467906146 82.26697823082988 H 0.0 **** 0.06
17026 C 30.022184302864893 152.33753045894812 77.32759342233142 C 0.0 **** -0.24
17027 H 30.524753258874007 151.58189531612848 76.72371857188504 H 0.0 **** 0.06
17028 H 29.079233454256368 151.9348976128089 77.69939496427124 H 0.0 **** 0.06
17029 H 29.82545420995796 153.2182298751383 76.71681797832207 H 0.0 **** 0.06
17030 H 30.6575862922072 152.61218398740314 78.16883629431386 H 0.0 **** 0.06
17031 C 160.2663811499621 7.313450322042172 141.15467049793133 C 0.0 **** -0.24
17032 H 161.23548739766548 7.792604626650814 141.29017348390613 H 0.0 **** 0.06
17033 H 159.6419344096085 7.504816088922098 142.02826440615647 H 0.0 **** 0.06
17034 H 160.40632852613305 6.239422648839593 141.03549364818218 H 0.0 **** 0.06
17035 H 159.7814274281523 7.717882316304781 140.2657630056906 H 0.0 **** 0.06
17036 C 37.121807219743516 12.359105657281589 134.89155523756187 C 0.0 **** -0.24
17037 H 36.36708192338176 11.662386386977687 135.2553172733095 H 0.0 **** 0.06
17038 H 36.71715332369598 12.926657681534834 134.0530537136998 H 0.0 **** 0.06
17039 H 38.001264139702585 11.803666755843324 134.56474944136033 H 0.0 **** 0.06
17040 H 37.40115113586501 13.043446141880139 135.6923291870829 H 0.0 **** 0.06
17041 C 158.3156974033824 124.79040388946083 100.89770611816326 C 0.0 **** -0.24
17042 H 158.44314515159277 125.82400434929181 100.57349620994631 H 0.0 **** 0.06
17043 H 157.72760522286592 124.24761564955165 100.15676252315365 H 0.0 **** 0.06
17044 H 157.7984252345751 124.77218426873219 101.85713689419208 H 0.0 **** 0.06
17045 H 159.29331777587382 124.31962352394282 101.00215283258271 H 0.0 **** 0.06
17046 C 67.93382408023525 15.303196510240298 136.33305856590982 C 0.0 **** -0.24
17047 H 67.93351583048758 14.221633198210128 136.20334535235412 H 0.0 **** 0.06
17048 H 67.67393466367176 15.545457474022271 137.3646457129743 H 0.0 **** 0.06
17049 H 67.20231671578554 15.750215686748561 135.65944094052162 H 0.0 **** 0.06
17050 H 68.92445021032523 15.697125051755648 136.1058647466342 H 0.0 **** 0.06
17051 C 71.68512553687403 12.540596761291795 99.85687335096003 C 0.0 **** -0.24
17052 H 72.7300149802855 12.826460083655832 99.73482796154715 H 0.0 **** 0.06
17053 H 71.45985326685432 12.432036731999403 100.91750333412762 H 0.0 **** 0.06
17054 H 71.50725027865627 11.592389117823018 99.34788360178428 H 0.0 **** 0.06
17055 H 71.04514190190802 13.309853209357186 99.42523078315429 H 0.0 **** 0.06
17056 C 31.798145036196786 139.5566930361959 50.32463397509298 C 0.0 **** -0.24
17057 H 32.09663248234506 139.41114849127985 49.286916837983426 H 0.0 **** 0.06
17058 H 32.68668015013435 139.6369765738934 50.9505171492836 H 0.0 **** 0.06
17059 H 31.19719143082162 138.70790667356962 50.65219825007526 H 0.0 **** 0.06
17060 H 31.210635207414384 140.47145658420584 50.408262522417346 H 0.0 **** 0.06
17061 C 121.37694156838114 137.47910053400497 106.9612695966949 C 0.0 **** -0.24
17062 H 121.55329811292873 136.79562927068227 106.1291882710336 H 0.0 **** 0.06
17063 H 120.38663155662152 137.92290789715437 106.86150012858488 H 0.0 **** 0.06
17064 H 122.13182101294976 138.26568468400956 106.95062665536963 H 0.0 **** 0.06
17065 H 121.43685729148956 136.92925445962703 107.90019517330146 H 0.0 **** 0.06
17066 C 130.00051257151478 37.9109572099359 50.06498803012278 C 0.0 **** -0.24
17067 H 130.7322063295987 37.10275456855882 50.05075388419826 H 0.0 **** 0.06
17068 H 130.51915708671146 38.86909002649365 50.01295652658705 H 0.0 **** 0.06
17069 H 129.4221943745115 37.86048849369831 50.987422754666966 H 0.0 **** 0.06
17070 H 129.33222978426954 37.81069328847809 49.21036467094555 H 0.0 **** 0.06
17071 C 117.51604651676365 148.6651505226498 38.06907308491077 C 0.0 **** -0.24
17072 H 116.60420526473897 148.17522370875156 38.41260495552649 H 0.0 **** 0.06
17073 H 117.58998721797894 149.65401303754152 38.522162006045164 H 0.0 **** 0.06
17074 H 117.48711071133877 148.7647412028399 36.984138403215866 H 0.0 **** 0.06
17075 H 118.38062745219122 148.06653182731878 38.356435798656264 H 0.0 **** 0.06
17076 C 141.7361430387177 10.041457034994806 138.43396380530424 C 0.0 **** -0.24
17077 H 141.38728417883544 11.035424395416584 138.1544656320184 H 0.0 **** 0.06
17078 H 141.08439350890814 9.290130555222959 137.98866400656487 H 0.0 **** 0.06
17079 H 141.71690520874301 9.94281080999906 139.51929494480476 H 0.0 **** 0.06
17080 H 142.7552618502002 9.900191178892953 138.07327324730454 H 0.0 **** 0.06
17081 C 108.10067082679043 11.142502223731412 7.924787189538037 C 0.0 **** -0.24
17082 H 107.46184458348156 11.14611220695312 8.807764451129358 H 0.0 **** 0.06
17083 H 108.8077083295405 10.315901408140121 7.991013323490272 H 0.0 **** 0.06
17084 H 108.6461979333821 12.084037178814043 7.868245739504161 H 0.0 **** 0.06
17085 H 107.4848269785196 11.024000663210188 7.032877097675382 H 0.0 **** 0.06
17086 C 135.0995170927986 155.97994941455366 156.60381536132712 C 0.0 **** -0.24
17087 H 135.00696465639783 157.06556994439634 156.65122850664355 H 0.0 **** 0.06
17088 H 134.5786876395611 155.6091668967078 155.72123570567953 H 0.0 **** 0.06
17089 H 134.65802647847738 155.54025256679617 157.49827194574644 H 0.0 **** 0.06
17090 H 136.1525245885439 155.7073481735413 156.54627769321453 H 0.0 **** 0.06
17091 C 24.48734724677948 46.47473108113991 75.97437506904951 C 0.0 **** -0.24
17092 H 23.823719438112136 47.12703450785966 76.54217277317117 H 0.0 **** 0.06
17093 H 23.89230416900739 45.795163147539654 75.36376223403882 H 0.0 **** 0.06
17094 H 25.106006274461237 45.898758830522866 76.66152482441937 H 0.0 **** 0.06
17095 H 25.12630938480234 47.078587789977405 75.32932364119596 H 0.0 **** 0.06
17096 C 111.84020013215334 55.76579226387297 27.97815250717349 C 0.0 **** -0.24
17097 H 111.52081178287531 55.91256883763754 29.009962847372833 H 0.0 **** 0.06
17098 H 112.11080073443466 56.72726695692664 27.541767832605217 H 0.0 **** 0.06
17099 H 111.02621478887554 55.32304568144218 27.404725824990976 H 0.0 **** 0.06
17100 H 112.70368352820009 55.10097326474252 27.9563126828223 H 0.0 **** 0.06
17101 C 98.87814213232619 106.00976537391372 138.41271021612582 C 0.0 **** -0.24
17102 H 99.66251583112904 106.69801469360436 138.72819815778917 H 0.0 **** 0.06
17103 H 97.97188198347641 106.2057242371263 138.98516676615378 H 0.0 **** 0.06
17104 H 99.20343881157675 104.98416168934907 138.58686246502867 H 0.0 **** 0.06
17105 H 98.67605235029083 106.15092764978766 137.35106301459305 H 0.0 **** 0.06
17106 C 68.91923222899212 64.37126531707912 100.5549080302381 C 0.0 **** -0.24
17107 H 69.9901732947667 64.27379001745582 100.37576376496011 H 0.0 **** 0.06
17108 H 68.48648872332613 63.38423605684909 100.71760452524222 H 0.0 **** 0.06
17109 H 68.44732124022873 64.83700608639923 99.68995635532616 H 0.0 **** 0.06
17110 H 68.75373778793694 64.99209955480423 101.43601433905602 H 0.0 **** 0.06
17111 C 73.36333164022197 30.797880059688012 100.32968630089147 C 0.0 **** -0.24
17112 H 72.70360522557519 31.65231097063318 100.17759835990339 H 0.0 **** 0.06
17113 H 74.17504692976485 31.08182450671088 100.99994200967097 H 0.0 **** 0.06
17114 H 73.77505659348962 30.482068460723582 99.3719898967716 H 0.0 **** 0.06
17115 H 72.79740660945947 29.976388364837447 100.77093584777532 H 0.0 **** 0.06
17116 C 134.02258500960966 114.31014891612455 21.796670309615806 C 0.0 **** -0.24
17117 H 133.64147839329684 114.8698686191837 22.65061904724344 H 0.0 **** 0.06
17118 H 135.08986096890663 114.50343210316603 21.68371224116158 H 0.0 **** 0.06
17119 H 133.49788498347448 114.62374072416213 20.89350589808854 H 0.0 **** 0.06
17120 H 133.86107517204724 113.24496679732681 21.958788933562346 H 0.0 **** 0.06
17121 C 33.72743320098476 27.983843097471407 30.01088521053464 C 0.0 **** -0.24
17122 H 32.84717974629177 27.818363812293967 29.388393149068065 H 0.0 **** 0.06
17123 H 34.50246351273978 28.47180334493794 29.41995317983276 H 0.0 **** 0.06
17124 H 34.097570750353285 27.025780983205323 30.377200736998702 H 0.0 **** 0.06
17125 H 33.46087471930473 28.617586627035905 30.856284849071926 H 0.0 **** 0.06
17126 C 33.562438041917304 126.9595812761765 8.06545643861351 C 0.0 **** -0.24
17127 H 33.37433609158886 125.92123580861673 7.791242614485803 H 0.0 **** 0.06
17128 H 32.70236877250784 127.3541323549594 8.606907422303408 H 0.0 **** 0.06
17129 H 33.726190682822306 127.54922094309808 7.163660463717058 H 0.0 **** 0.06
17130 H 34.44762515698244 127.01333195825632 8.699519134909963 H 0.0 **** 0.06
17131 C 100.94775491761084 59.06409901792081 139.7251387648371 C 0.0 **** -0.24
17132 H 100.5880669284827 58.16856734540862 140.23269019654393 H 0.0 **** 0.06
17133 H 101.67756144417831 59.56987070383656 140.3584564844836 H 0.0 **** 0.06
17134 H 100.11009925534069 59.733046861804624 139.5307098701404 H 0.0 **** 0.06
17135 H 101.41712468135722 58.78426395309502 138.78233486213318 H 0.0 **** 0.06
17136 C 108.33037691685948 31.009116714049867 30.3143653851426 C 0.0 **** -0.24
17137 H 108.27526444493304 32.09036313200389 30.18335893120959 H 0.0 **** 0.06
17138 H 108.427809676093 30.777329294945105 31.374869180129778 H 0.0 **** 0.06
17139 H 109.19489567583344 30.621389202078092 29.776187417016445 H 0.0 **** 0.06
17140 H 107.42290517137863 30.54954474221026 29.924013673108263 H 0.0 **** 0.06
17141 C 127.36468819958603 56.07814399857523 52.06436345618803 C 0.0 **** -0.24
17142 H 128.3752563783124 56.29413397004896 52.41000795878358 H 0.0 **** 0.06
17143 H 126.97836317739592 56.93582554679347 51.51323714566189 H 0.0 **** 0.06
17144 H 126.72185184028436 55.87709705168646 52.921686856723284 H 0.0 **** 0.06
17145 H 127.3822267637021 55.204870242026345 51.411838959385065 H 0.0 **** 0.06
17146 C 38.10408321660857 53.96629291232205 21.547903866959302 C 0.0 **** -0.24
17147 H 39.08920691782963 53.50326943955861 21.48174158831904 H 0.0 **** 0.06
17148 H 37.901484553676525 54.24080320246668 22.58330463429263 H 0.0 **** 0.06
17149 H 37.34766216424606 53.26057347668069 21.203890583261114 H 0.0 **** 0.06
17150 H 38.080284750007905 54.8586061374514 20.922706631012773 H 0.0 **** 0.06
17151 C 55.684111747199665 28.06531525395968 142.97682564765296 C 0.0 **** -0.24
17152 H 54.89071189359612 28.787649531233853 142.7881071198352 H 0.0 **** 0.06
17153 H 56.39432277833414 28.080636626459807 142.14965612144275 H 0.0 **** 0.06
17154 H 55.25321596200526 27.0679659914818 143.0683960945948 H 0.0 **** 0.06
17155 H 56.19879655784092 28.324283967035512 143.9021988764871 H 0.0 **** 0.06
17156 C 100.34775877463883 127.93329651283528 36.98829336850133 C 0.0 **** -0.24
17157 H 100.08876626229588 128.53347870337376 36.11618955281445 H 0.0 **** 0.06
17158 H 100.41507767540648 128.57601590210587 37.865746952084535 H 0.0 **** 0.06
17159 H 101.30787781613554 127.44428731460269 36.820036655952705 H 0.0 **** 0.06
17160 H 99.57890848581229 127.17723536757248 37.148934732623104 H 0.0 **** 0.06
17161 C 0.5278588472917747 77.48508457882978 132.20109277941665 C 0.0 **** -0.24
17162 H 1.2490341525281394 77.62715141424135 133.005217777681 H 0.0 **** 0.06
17163 H 0.6401147502846953 78.28168603018298 131.46601824035514 H 0.0 **** 0.06
17164 H -0.48223594888303367 77.50891584688385 132.61174892685958 H 0.0 **** 0.06
17165 H 0.7022904538055172 76.52093242121977 131.72252082448946 H 0.0 **** 0.06
17166 C 41.96812683883641 15.799236937315968 82.65005922196347 C 0.0 **** -0.24
17167 H 41.70279897847085 15.185621950836172 83.51020025134676 H 0.0 **** 0.06
17168 H 41.64364908365742 15.302003181404572 81.73512551921799 H 0.0 **** 0.06
17169 H 43.0494270618438 15.93877096524158 82.62379180981131 H 0.0 **** 0.06
17170 H 41.478120385166605 16.768900182784265 82.73087806208493 H 0.0 **** 0.06
17171 C 151.02743955494307 39.21565655457789 22.289268110668843 C 0.0 **** -0.24
17172 H 150.58232235747465 39.41656256482037 23.264235464068804 H 0.0 **** 0.06
17173 H 152.0704876112466 38.92538539998142 22.419614947975674 H 0.0 **** 0.06
17174 H 150.97426736523747 40.11321878667238 21.673868577610563 H 0.0 **** 0.06
17175 H 150.4824364311359 38.407399651624274 21.8015753474713 H 0.0 **** 0.06
17176 C 118.2377640426779 7.129367861008447 40.17576297650038 C 0.0 **** -0.24
17177 H 117.15165183975887 7.145901660956213 40.25613535885864 H 0.0 **** 0.06
17178 H 118.60128505003956 8.13318029415035 39.95298512333504 H 0.0 **** 0.06
17179 H 118.53373847673527 6.449748172697298 39.376074852172636 H 0.0 **** 0.06
17180 H 118.66538333268102 6.788281522173797 41.11922243230835 H 0.0 **** 0.06
17181 C 119.36628834016506 87.77049756097131 127.06262910490398 C 0.0 **** -0.24
17182 H 119.3354759820428 88.70608703742931 127.62299224776635 H 0.0 **** 0.06
17183 H 120.23918973412128 87.76710781137643 126.40979105158891 H 0.0 **** 0.06
17184 H 118.46224941593346 87.6790223312787 126.4607190143283 H 0.0 **** 0.06
17185 H 119.42761062743011 86.93342263987597 127.7575499546154 H 0.0 **** 0.06
17186 C 0.7511980259319273 59.76789530799894 38.47052643473833 C 0.0 **** -0.24
17187 H 1.6821744711535018 59.23541674570458 38.2727024378145 H 0.0 **** 0.06
17188 H -0.002358432578716929 59.46367417619436 37.74341980412942 H 0.0 **** 0.06
17189 H 0.9227886047131335 60.84101687962695 38.38988150540814 H 0.0 **** 0.06
17190 H 0.4034203436916073 59.52935869366539 39.47619181485038 H 0.0 **** 0.06
17191 C 22.996054936518824 28.069553268336065 55.370931404593165 C 0.0 **** -0.24
17192 H 24.05911031879436 28.106065706138004 55.610418298347824 H 0.0 **** 0.06
17193 H 22.708224136416646 28.987550466843274 54.8594664482427 H 0.0 **** 0.06
17194 H 22.421066927069347 27.969828698237215 56.29187693662189 H 0.0 **** 0.06
17195 H 22.798922636434575 27.21422737945627 54.724623167245056 H 0.0 **** 0.06
17196 C 37.111846951852115 65.83709570957767 64.34946187195143 C 0.0 **** -0.24
17197 H 37.11393400171902 65.09928516656899 65.15178169737175 H 0.0 **** 0.06
17198 H 36.18538703142907 66.40916054031115 64.38560968927254 H 0.0 **** 0.06
17199 H 37.187674022345774 65.32748172428985 63.38876800503115 H 0.0 **** 0.06
17200 H 37.96038283363454 66.50875083111416 64.47221387232946 H 0.0 **** 0.06
17201 C 108.32044746811786 115.90455729163534 52.8494322900533 C 0.0 **** -0.24
17202 H 108.67892215812395 116.85162515377095 53.25121728223462 H 0.0 **** 0.06
17203 H 108.11745905836818 115.2155469092296 53.67042578011234 H 0.0 **** 0.06
17204 H 109.08026332041615 115.47670310344256 52.19562305762037 H 0.0 **** 0.06
17205 H 107.40499065222116 116.07344226928888 52.2815330310662 H 0.0 **** 0.06
17206 C 5.141210775879699 14.005240986641617 153.14918577583552 C 0.0 **** -0.24
17207 H 4.57073700634578 14.718435412670466 152.5540805339435 H 0.0 **** 0.06
17208 H 4.554945983395072 13.097168258150987 153.28682059311797 H 0.0 **** 0.06
17209 H 5.3691828272417865 14.442580285046489 154.1213009655545 H 0.0 **** 0.06
17210 H 6.070926045997169 13.76311905476149 152.63313211698053 H 0.0 **** 0.06
17211 C 88.02055802739756 106.1416971471894 3.505180704181612 C 0.0 **** -0.24
17212 H 87.49780916861295 105.20938441127117 3.719349927518948 H 0.0 **** 0.06
17213 H 88.57932015987672 106.03858457470602 2.5742727748507264 H 0.0 **** 0.06
17214 H 88.70838963879203 106.3684509341416 4.3187273830134245 H 0.0 **** 0.06
17215 H 87.29617592697974 106.94987016512789 3.4060354091533327 H 0.0 **** 0.06
17216 C 120.23093063628755 69.65030443584882 150.01971333719462 C 0.0 **** -0.24
17217 H 120.80034073995506 70.24546836156473 149.3057890468866 H 0.0 **** 0.06
17218 H 119.57659944183348 70.30450445356655 150.59664479507163 H 0.0 **** 0.06
17219 H 120.91640203309433 69.13589830503163 150.69353316859645 H 0.0 **** 0.06
17220 H 119.6303044195806 68.91629012809918 149.4832089313332 H 0.0 **** 0.06
17221 C 79.80721318291525 64.66952583012028 61.529163801600504 C 0.0 **** -0.24
17222 H 80.11706260196543 63.755521086867134 61.02247797790832 H 0.0 **** 0.06
17223 H 78.77343947213603 64.56774829419368 61.86172078984174 H 0.0 **** 0.06
17224 H 79.88607883220287 65.51111839126244 60.84066976461355 H 0.0 **** 0.06
17225 H 80.45097240811315 64.84416080230204 62.39145003783341 H 0.0 **** 0.06
17226 C 17.17462663532669 108.96643030223697 148.82966727270752 C 0.0 **** -0.24
17227 H 16.216552365807416 108.84904132233464 149.33567356330445 H 0.0 **** 0.06
17228 H 17.035410972538727 108.84291454975323 147.75567811370317 H 0.0 **** 0.06
17229 H 17.872918107055938 108.21371178285762 149.1946257436789 H 0.0 **** 0.06
17230 H 17.573625095904646 109.96005355400246 149.03269167014372 H 0.0 **** 0.06
17231 C 144.73265208048068 12.94845311900906 29.128506499995815 C 0.0 **** -0.24
17232 H 143.64437837920363 12.99696361940184 29.121513838617155 H 0.0 **** 0.06
17233 H 145.13168198755844 13.612740777997459 28.362152217554126 H 0.0 **** 0.06
17234 H 145.05145116411435 11.925548668405412 28.924529713321753 H 0.0 **** 0.06
17235 H 145.1045277205373 13.25593272911459 30.105599451981085 H 0.0 **** 0.06
17236 C 14.093728695940683 134.86856015224419 10.808466743482796 C 0.0 **** -0.24
17237 H 14.6632580952718 134.12393895698156 11.365204038131694 H 0.0 **** 0.06
17238 H 13.076290325692725 134.912417362368 11.196987736848556 H 0.0 **** 0.06
17239 H 14.06958152263877 134.5923037142396 9.753632066912324 H 0.0 **** 0.06
17240 H 14.568005626641252 135.84363981377533 10.917493747485828 H 0.0 **** 0.06
17241 C 120.94066878350245 162.61644992441592 5.367718917149119 C 0.0 **** -0.24
17242 H 121.80519949088384 163.27832892006393 5.32188561264735 H 0.0 **** 0.06
17243 H 120.13490042152407 163.02741226751326 4.7593365039248 H 0.0 **** 0.06
17244 H 120.60626225663614 162.52727101092023 6.402066682155862 H 0.0 **** 0.06
17245 H 121.21620344364706 161.63235090537867 4.98999468465081 H 0.0 **** 0.06
17246 C 44.19041705984938 58.57731964624816 27.147725605292777 C 0.0 **** -0.24
17247 H 44.68716818840804 57.608308408537056 27.10708852793303 H 0.0 **** 0.06
17248 H 43.13417851046083 58.433669288324595 27.37960836875814 H 0.0 **** 0.06
17249 H 44.286324979890594 59.07644979554068 26.183867421635085 H 0.0 **** 0.06
17250 H 44.65219244913263 59.189653403334006 27.92241439611479 H 0.0 **** 0.06
17251 C 150.85896017770068 45.397888047692504 124.32052851623223 C 0.0 **** -0.24
17252 H 151.7632736279317 45.290861267689294 123.7207757894252 H 0.0 **** 0.06
17253 H 150.86880906485254 46.36413773075145 124.82401076913845 H 0.0 **** 0.06
17254 H 150.81968418982564 44.601061034675254 125.06244086147657 H 0.0 **** 0.06
17255 H 149.98444511371252 45.33374232602934 123.67227886074346 H 0.0 **** 0.06
17256 C 35.63837580757618 24.280257770793185 97.4702028853709 C 0.0 **** -0.24
17257 H 36.25570494452738 23.396792756958973 97.30728215827074 H 0.0 **** 0.06
17258 H 36.225706070605284 25.176112589712204 97.26753770322273 H 0.0 **** 0.06
17259 H 35.29427431924218 24.29722098424429 98.50472852362952 H 0.0 **** 0.06
17260 H 34.777920853995624 24.25151694128499 96.80204715534745 H 0.0 **** 0.06
17261 C 11.521154534763546 141.42930328256534 97.68333107682847 C 0.0 **** -0.24
17262 H 11.483845199976166 142.40566575618237 97.20080007083857 H 0.0 **** 0.06
17263 H 11.407651466501001 140.64731680089255 96.93114817743816 H 0.0 **** 0.06
17264 H 10.715505793644603 141.35299285913177 98.41216618884283 H 0.0 **** 0.06
17265 H 12.480153973555538 141.31080889943104 98.18766926964719 H 0.0 **** 0.06
17266 C 62.41060787976642 148.8476409125609 153.72811476112838 C 0.0 **** -0.24
17267 H 63.070861587512894 149.57446231803493 154.2000739829714 H 0.0 **** 0.06
17268 H 61.37744567391782 149.06854967277485 153.9960532416976 H 0.0 **** 0.06
17269 H 62.66899409715636 147.84552117013305 154.07252946244407 H 0.0 **** 0.06
17270 H 62.52611370428778 148.90116442765327 152.6456141878832 H 0.0 **** 0.06
17271 C 54.65939820294926 130.17018031240306 156.43163944811812 C 0.0 **** -0.24
17272 H 54.817302008497535 129.18249296116795 156.8647975483752 H 0.0 **** 0.06
17273 H 53.65004061679576 130.23069049879678 156.02325645276966 H 0.0 **** 0.06
17274 H 55.384946296355906 130.3374853885136 155.63532365367698 H 0.0 **** 0.06
17275 H 54.785303890147645 130.9300524011339 157.20318013765066 H 0.0 **** 0.06
17276 C 123.7559569896373 56.951688034401 76.10548166421319 C 0.0 **** -0.24
17277 H 123.56225031852131 56.036452752429014 75.54660695329649 H 0.0 **** 0.06
17278 H 123.30287139294103 57.797266165225864 75.58735432268293 H 0.0 **** 0.06
17279 H 124.83200667666335 57.10846319081658 76.18535969381871 H 0.0 **** 0.06
17280 H 123.32673721219021 56.86492899157922 77.10397308948964 H 0.0 **** 0.06
17281 C 4.292542657719281 20.333027487248586 112.00199712399333 C 0.0 **** -0.24
17282 H 4.076414094498432 21.310570119714384 112.43290395632306 H 0.0 **** 0.06
17283 H 5.352758197101707 20.110622179524796 112.11877775846162 H 0.0 **** 0.06
17284 H 4.036286763516415 20.338307534098334 110.94181980814372 H 0.0 **** 0.06
17285 H 3.7023613593243567 19.572803150909294 112.51382409962298 H 0.0 **** 0.06
17286 C 2.1502403923960856 75.76349119606347 136.94109038238395 C 0.0 **** -0.24
17287 H 1.5674237741476986 74.87030393789374 136.71731560701295 H 0.0 **** 0.06
17288 H 3.1568385524658424 75.65134375054741 136.5381562033308 H 0.0 **** 0.06
17289 H 2.203502898646491 75.90067077122193 138.02066515809952 H 0.0 **** 0.06
17290 H 1.6718817683123461 76.63147802115543 136.48710936855213 H 0.0 **** 0.06
17291 C 47.21231559625602 13.598162343279512 112.62830818405692 C 0.0 **** -0.24
17292 H 47.09271364180222 14.062231826626487 111.6498043701497 H 0.0 **** 0.06
17293 H 46.36386424581434 12.941776648201198 112.82470578282397 H 0.0 **** 0.06
17294 H 47.25807110563616 14.372387593550457 113.3943039778525 H 0.0 **** 0.06
17295 H 48.133486158931134 13.016798051667138 112.64507637228286 H 0.0 **** 0.06
17296 C 46.54315812948353 70.52166797330385 14.154494547842653 C 0.0 **** -0.24
17297 H 47.007546194489294 71.5072207391969 14.136020166210955 H 0.0 **** 0.06
17298 H 46.257095859296726 70.27357314829528 15.176640424505585 H 0.0 **** 0.06
17299 H 47.250499826496736 69.77952862086444 13.78357571751684 H 0.0 **** 0.06
17300 H 45.65580966687587 70.52599642437394 13.520310133491122 H 0.0 **** 0.06
17301 C 98.55695488473859 121.6177461627777 109.70914639179654 C 0.0 **** -0.24
17302 H 97.76733569798444 120.87077857653591 109.78923892597433 H 0.0 **** 0.06
17303 H 99.43171931415463 121.28229562639999 110.26536753216615 H 0.0 **** 0.06
17304 H 98.20445657939351 122.56411611108703 110.12139846699316 H 0.0 **** 0.06
17305 H 98.82228505435344 121.75447290097367 108.66124967537488 H 0.0 **** 0.06
17306 C 135.20530813633297 102.14310328935076 21.85216563799402 C 0.0 **** -0.24
17307 H 134.12980356832526 102.18155176784401 21.679077521757755 H 0.0 **** 0.06
17308 H 135.70942012312582 102.8151085099934 21.15695202156534 H 0.0 **** 0.06
17309 H 135.56191980988788 101.12466725976708 21.69743028127646 H 0.0 **** 0.06
17310 H 135.41956717999756 102.45113932184202 22.876516056893784 H 0.0 **** 0.06
17311 C 94.46897130907115 22.81762601239796 102.9551192096148 C 0.0 **** -0.24
17312 H 95.31889223066958 23.16328912353687 102.36614101315851 H 0.0 **** 0.06
17313 H 93.56487326990873 23.327260694771716 102.62242103835462 H 0.0 **** 0.06
17314 H 94.64370224831191 23.038394707381116 104.00827026572622 H 0.0 **** 0.06
17315 H 94.34957778496101 21.742725719189288 102.82418654395914 H 0.0 **** 0.06
17316 C 123.56850525149557 156.63210816228198 97.71816780860092 C 0.0 **** -0.24
17317 H 123.25920278676392 156.8329018895212 96.69265100849361 H 0.0 **** 0.06
17318 H 123.1295997888902 155.69238175280606 98.05297688501014 H 0.0 **** 0.06
17319 H 123.23066900166486 157.44240197581334 98.36490460698843 H 0.0 **** 0.06
17320 H 124.65576525061874 156.56147732844553 97.76313298394831 H 0.0 **** 0.06
17321 C 118.20985789678741 103.11520105878901 151.5156756276958 C 0.0 **** -0.24
17322 H 117.87497549060288 102.0893580411971 151.36428965562015 H 0.0 **** 0.06
17323 H 118.18025740542646 103.65075276930475 150.56623259974796 H 0.0 **** 0.06
17324 H 119.22940520757754 103.11144120902952 151.90031829373788 H 0.0 **** 0.06
17325 H 117.55256743236305 103.60907598387234 152.23174453334406 H 0.0 **** 0.06
17326 C 53.22133794945654 103.16875276212073 80.35712073846723 C 0.0 **** -0.24
17327 H 52.28727733094436 103.66836823938465 80.616907258799 H 0.0 **** 0.06
17328 H 53.20976504634899 102.90550660280965 79.29967222001603 H 0.0 **** 0.06
17329 H 53.328325704920815 102.26480812043621 80.95608111873221 H 0.0 **** 0.06
17330 H 54.05777583712771 103.8392047081245 80.55674471168862 H 0.0 **** 0.06
17331 C 0.3861753068471785 6.278375689403596 148.4448866873334 C 0.0 **** -0.24
17332 H 0.13063594753614893 5.976278119393328 149.46027702321945 H 0.0 **** 0.06
17333 H -0.35495370993493225 6.988918067826901 148.07862015782175 H 0.0 **** 0.06
17334 H 0.3998323259384904 5.401166835848379 147.7983582995065 H 0.0 **** 0.06
17335 H 1.370539845152166 6.746735788016387 148.44221519039198 H 0.0 **** 0.06
17336 C 65.79483582476729 4.761839301892678 154.9509580898551 C 0.0 **** -0.24
17337 H 65.58351613744998 5.222685272422666 155.91529610285957 H 0.0 **** 0.06
17338 H 66.70201992648714 4.160602275528987 155.02609104092758 H 0.0 **** 0.06
17339 H 65.93579641152576 5.539610825036021 154.19984794299776 H 0.0 **** 0.06
17340 H 64.95907516415545 4.124363897828317 154.66167086744952 H 0.0 **** 0.06
17341 C 70.69609916223196 2.330552765252662 55.72647003162888 C 0.0 **** -0.24
17342 H 70.99090390020106 1.3081216979716146 55.96126720791534 H 0.0 **** 0.06
17343 H 69.60851142467212 2.4023900912243334 55.72442922579978 H 0.0 **** 0.06
17344 H 71.07950211573028 2.6028342288899466 54.74330685853289 H 0.0 **** 0.06
17345 H 71.10333441518499 3.0082925001517538 56.47660811868968 H 0.0 **** 0.06
17346 C 120.47744550569467 38.39899938332918 119.8144223554524 C 0.0 **** -0.24
17347 H 119.56216301306875 38.43922113722223 119.2230121289526 H 0.0 **** 0.06
17348 H 120.29322994761762 38.8295835727058 120.79863104114435 H 0.0 **** 0.06
17349 H 121.26064356442944 38.965922060457615 119.31034264068248 H 0.0 **** 0.06
17350 H 120.793385255868 37.36104996028021 119.92435396944853 H 0.0 **** 0.06
17351 C 115.43988340491043 62.42851361701048 150.18550297124878 C 0.0 **** -0.24
17352 H 114.92075723900797 63.3330150065475 149.86778119046863 H 0.0 **** 0.06
17353 H 116.50511871101318 62.52817858307856 149.97632481150123 H 0.0 **** 0.06
17354 H 115.04183810949186 61.571828938809915 149.64177311416927 H 0.0 **** 0.06
17355 H 115.29137401190616 62.28041964528353 151.25547961296022 H 0.0 **** 0.06
17356 C 156.69339457229327 65.32071628764481 63.83440199603993 C 0.0 **** -0.24
17357 H 157.2098718557977 64.5199244250519 64.36391542679561 H 0.0 **** 0.06
17358 H 155.66939409325423 65.01242720614528 63.62169858753225 H 0.0 **** 0.06
17359 H 157.2119638182378 65.52963768809758 62.899093159746585 H 0.0 **** 0.06
17360 H 156.6833260639521 66.21771440785085 64.45312474167856 H 0.0 **** 0.06
17361 C 13.732624429806947 12.79374152308344 6.557609834404616 C 0.0 **** -0.24
17362 H 14.238913693985523 13.660940514153594 6.134618200793483 H 0.0 **** 0.06
17363 H 12.656306294862532 12.89852856054307 6.41959962928469 H 0.0 **** 0.06
17364 H 13.95735553065498 12.72605693831207 7.622656605522764 H 0.0 **** 0.06
17365 H 14.078519944080313 11.890805595904936 6.055968713074115 H 0.0 **** 0.06
17366 C 96.07130376717627 148.2949159132206 63.7448062106544 C 0.0 **** -0.24
17367 H 95.39535739325227 147.92257452018038 64.51294432735664 H 0.0 **** 0.06
17368 H 95.81865029312051 149.32816969416592 63.507088525718586 H 0.0 **** 0.06
17369 H 95.97526465017982 147.68165076681973 62.84824710199506 H 0.0 **** 0.06
17370 H 97.09741499699231 148.24627976083684 64.10958303498066 H 0.0 **** 0.06
17371 C 106.61965920833677 144.61000630668244 107.26112962128121 C 0.0 **** -0.24
17372 H 106.07473746717747 145.49104955171887 107.60048335915326 H 0.0 **** 0.06
17373 H 106.8164729881691 144.69359098932452 106.19210772921801 H 0.0 **** 0.06
17374 H 106.02356583690457 143.7184596688845 107.45290581017849 H 0.0 **** 0.06
17375 H 107.56518184971964 144.5382631580909 107.7997024992946 H 0.0 **** 0.06
17376 C 22.896526691564304 88.67359716740035 134.06404994445674 C 0.0 **** -0.24
17377 H 22.99746993191627 88.31859244089156 135.08950006617923 H 0.0 **** 0.06
17378 H 22.937130556177976 87.82597466891494 133.3801564778136 H 0.0 **** 0.06
17379 H 23.708179773087295 89.36378077743234 133.83717846009702 H 0.0 **** 0.06
17380 H 21.940691488634286 89.18593224756899 133.95079487169625 H 0.0 **** 0.06
17381 C 128.35827441233585 108.5521935266151 135.91377410714807 C 0.0 **** -0.24
17382 H 128.59482817108335 108.96864283985735 134.93503352811305 H 0.0 **** 0.06
17383 H 127.35747156481614 108.11991281907507 135.8924919303009 H 0.0 **** 0.06
17384 H 128.39778044800278 109.34119738372829 136.66445248537326 H 0.0 **** 0.06
17385 H 129.08255946974612 107.77662555430638 136.16334642183693 H 0.0 **** 0.06
17386 C 82.29930975706966 38.377748910187165 38.09089825043583 C 0.0 **** -0.24
17387 H 83.05859650330831 38.96313717657574 38.607728992919064 H 0.0 **** 0.06
17388 H 82.2147591046123 38.721134464767914 37.05945487864935 H 0.0 **** 0.06
17389 H 81.34027721992658 38.50057256891574 38.59482961262334 H 0.0 **** 0.06
17390 H 82.58247547393984 37.32563160832652 38.10090772675076 H 0.0 **** 0.06
17391 C 73.93043090847968 128.04534280192064 45.306036253330646 C 0.0 **** -0.24
17392 H 73.7471371998236 127.57255262487607 46.27166546010187 H 0.0 **** 0.06
17393 H 73.14813795893731 128.7783182263206 45.10654276391739 H 0.0 **** 0.06
17394 H 73.92591772131078 127.28606377540882 44.52381898453562 H 0.0 **** 0.06
17395 H 74.89949179699933 128.5431827056043 45.32365029159253 H 0.0 **** 0.06
17396 C 128.87040643921074 121.15843442964899 124.39656818600758 C 0.0 **** -0.24
17397 H 128.48932578329516 120.84228222415516 123.4254599653193 H 0.0 **** 0.06
17398 H 129.7334920293622 120.54796038574284 124.66361609570373 H 0.0 **** 0.06
17399 H 128.09160207243497 121.03723174134018 125.14885170570972 H 0.0 **** 0.06
17400 H 129.16727039680688 122.20603396698039 124.34612160983284 H 0.0 **** 0.06
17401 C 39.06868741651817 43.974214389427885 142.6024640944281 C 0.0 **** -0.24
17402 H 38.45946955284006 43.88049487783688 143.50220858310635 H 0.0 **** 0.06
17403 H 40.119309092302615 44.04269921698395 142.88224568528994 H 0.0 **** 0.06
17404 H 38.77747606607602 44.87459634674126 142.05942799529075 H 0.0 **** 0.06
17405 H 38.91615523438094 43.10187785973457 141.968346033507 H 0.0 **** 0.06
17406 C 6.647851649024318 52.907709333786826 90.34524093887009 C 0.0 **** -0.24
17407 H 7.456026081878548 53.50720311753359 89.92664072977139 H 0.0 **** 0.06
17408 H 6.770603016605918 51.86936748913756 90.0402505863331 H 0.0 **** 0.06
17409 H 5.691517154379682 53.28416658326911 89.98174521769656 H 0.0 **** 0.06
17410 H 6.67368394840156 52.97334614034047 91.43286051918986 H 0.0 **** 0.06
17411 C 88.3590515566063 85.20856183868489 69.09001669818537 C 0.0 **** -0.24
17412 H 87.31331396253998 85.08935391310445 69.37147749015148 H 0.0 **** 0.06
17413 H 88.72192823576593 84.28311410431269 68.64183047596555 H 0.0 **** 0.06
17414 H 88.94951977840375 85.43956748576517 69.97603559984157 H 0.0 **** 0.06
17415 H 88.45032365436008 86.02174382988005 68.36948819143956 H 0.0 **** 0.06
17416 C 81.02299975487907 105.24761786118103 7.082075786556231 C 0.0 **** -0.24
17417 H 80.70382431571252 106.12870899713585 6.525508359511036 H 0.0 **** 0.06
17418 H 80.23286375971749 104.94581718377356 7.769121124131317 H 0.0 **** 0.06
17419 H 81.92573140562136 105.48278693154262 7.647485360023381 H 0.0 **** 0.06
17420 H 81.23138789477113 104.43421954756406 6.387454734813389 H 0.0 **** 0.06
17421 C 49.73924587046042 78.28441218839873 160.1636689316259 C 0.0 **** -0.24
17422 H 49.9468021691963 79.32975683701812 159.93292051111095 H 0.0 **** 0.06
17423 H 50.37967532052318 77.96002696706245 160.98414148882676 H 0.0 **** 0.06
17424 H 49.93702914046315 77.67254457025535 159.2838430189924 H 0.0 **** 0.06
17425 H 48.69370586101974 78.1774034770255 160.45299070160738 H 0.0 **** 0.06
17426 C 69.42376195070796 93.63361839993891 151.81253232164852 C 0.0 **** -0.24
17427 H 69.89723072410291 94.06440063417546 152.69425099286792 H 0.0 **** 0.06
17428 H 70.13146158961591 92.97809693749593 151.30497179209027 H 0.0 **** 0.06
17429 H 69.1192665299932 94.43311055269963 151.1372422455305 H 0.0 **** 0.06
17430 H 68.54807852589472 93.05974746563425 152.1141571162861 H 0.0 **** 0.06
17431 C 151.82212976797157 33.95433678393991 21.505420064124962 C 0.0 **** -0.24
17432 H 151.36852280961116 33.017239296756614 21.8279954485472 H 0.0 **** 0.06
17433 H 152.48397262049716 33.7654995901957 20.659561068168614 H 0.0 **** 0.06
17434 H 152.39671872764166 34.38175601260133 22.327851350268247 H 0.0 **** 0.06
17435 H 151.0402448349997 34.65259185222969 21.207296503433213 H 0.0 **** 0.06
17436 C 52.767798727289545 154.7278967754576 12.801212207221148 C 0.0 **** -0.24
17437 H 52.17561656203682 154.10700481043233 13.473797012694718 H 0.0 **** 0.06
17438 H 52.27502378447173 155.69185976444308 12.669963957758263 H 0.0 **** 0.06
17439 H 52.859414830125644 154.23202081191616 11.834546084232187 H 0.0 **** 0.06
17440 H 53.759891800473724 154.88125530149142 13.226172629245916 H 0.0 **** 0.06
17441 C 93.52949091977068 141.47626997861596 141.67227122074385 C 0.0 **** -0.24
17442 H 93.4289735687819 140.63704645125384 142.36060253059958 H 0.0 **** 0.06
17443 H 94.48833613746118 141.96764518121788 141.83584108103472 H 0.0 **** 0.06
17444 H 92.7216327658206 142.18712415474977 141.8460797388255 H 0.0 **** 0.06
17445 H 93.47827542347284 141.11206928659587 140.64643416261532 H 0.0 **** 0.06
17446 C 24.309198027806033 25.855812254045702 121.99633679798293 C 0.0 **** -0.24
17447 H 24.753507309174957 25.163720213457964 121.2814838725021 H 0.0 **** 0.06
17448 H 23.295469643387946 26.103333226586187 121.67939985682361 H 0.0 **** 0.06
17449 H 24.907915234864213 26.765187062402674 122.04332621850426 H 0.0 **** 0.06
17450 H 24.278867470755088 25.390359139523525 122.9818530752332 H 0.0 **** 0.06
17451 C 105.93094075491612 96.20279803747853 22.458128939995873 C 0.0 **** -0.24
17452 H 106.04423634878083 96.84192866905019 23.333757855991138 H 0.0 **** 0.06
17453 H 104.87122341239606 96.07530727640037 22.23702915065269 H 0.0 **** 0.06
17454 H 106.381505639907 95.23018189948583 22.657415183015075 H 0.0 **** 0.06
17455 H 106.42732407852552 96.66481129210314 21.605118280202873 H 0.0 **** 0.06
17456 C 149.91424478669853 74.18381057235476 76.73339113911464 C 0.0 **** -0.24
17457 H 150.72912600015025 73.49108777146488 76.52092793475376 H 0.0 **** 0.06
17458 H 150.05172129210246 75.0946699665381 76.1505084434744 H 0.0 **** 0.06
17459 H 149.91205998692422 74.42702686919571 77.79573096427487 H 0.0 **** 0.06
17460 H 148.96452051168353 73.72091120507153 76.46455132446539 H 0.0 **** 0.06
17461 C 104.72462621725072 78.72430457334553 138.05091270274238 C 0.0 **** -0.24
17462 H 104.91494753389108 78.30297509085092 137.06428151950053 H 0.0 **** 0.06
17463 H 103.66825173395054 78.611972543444 138.29665921276552 H 0.0 **** 0.06
17464 H 104.98732743476225 79.78254126580055 138.05068390780116 H 0.0 **** 0.06
17465 H 105.32741204879247 78.2005531679789 138.79205676979757 H 0.0 **** 0.06
17466 C 7.788416951720848 31.34267602861717 141.557314999182 C 0.0 **** -0.24
17467 H 7.25416208910346 31.25097842293507 142.50260073675236 H 0.0 **** 0.06
17468 H 7.656718327167027 30.42953667012368 140.9767791752962 H 0.0 **** 0.06
17469 H 8.848879652480889 31.499158785560034 141.75249141836542 H 0.0 **** 0.06
17470 H 7.392016566808024 32.189571897933554 140.99684377859663 H 0.0 **** 0.06
17471 C 161.1236673797975 143.56828496228687 137.99402363452393 C 0.0 **** -0.24
17472 H 162.2088420031486 143.6642711144798 138.02363003597813 H 0.0 **** 0.06
17473 H 160.8030356132224 142.8391522812195 138.7386649472039 H 0.0 **** 0.06
17474 H 160.8155833876078 143.23472238828296 137.00273046839592 H 0.0 **** 0.06
17475 H 160.66756745800703 144.53369230776894 138.21148938178385 H 0.0 **** 0.06
17476 C 125.87347071286624 44.2426439801235 1.2399032215214163 C 0.0 **** -0.24
17477 H 124.86447192456339 44.043920930154016 1.6016772684278635 H 0.0 **** 0.06
17478 H 126.59904545871026 43.85968951577834 1.9578767846343794 H 0.0 **** 0.06
17479 H 126.01154959669168 45.31821898731948 1.1222829352862504 H 0.0 **** 0.06
17480 H 126.01837496922187 43.75110936105705 0.2782477171913911 H 0.0 **** 0.06
17481 C 148.83768872544726 130.09384098110408 64.63920435978096 C 0.0 **** -0.24
17482 H 148.26994531336436 130.6077073167648 65.41489415765535 H 0.0 **** 0.06
17483 H 148.14899780439498 129.6061230679671 63.949467524243175 H 0.0 **** 0.06
17484 H 149.48433390877716 129.34556085532856 65.09769505949825 H 0.0 **** 0.06
17485 H 149.44615875427553 130.8170097667694 64.09584904538974 H 0.0 **** 0.06
17486 C 76.76697830048424 3.7368076130611243 67.30770661093071 C 0.0 **** -0.24
17487 H 75.92437434208858 4.321823602505553 66.9405245232977 H 0.0 **** 0.06
17488 H 77.51294046669116 4.4046727567352875 67.73986571062723 H 0.0 **** 0.06
17489 H 77.21059819900037 3.1805694044630215 66.48213209163823 H 0.0 **** 0.06
17490 H 76.41951410552899 3.0390378764513457 68.0704240694426 H 0.0 **** 0.06
17491 C 30.871699883568887 139.51157472817692 119.91476058128299 C 0.0 **** -0.24
17492 H 31.232226142560116 139.96811112457192 118.99296603178519 H 0.0 **** 0.06
17493 H 30.489779453739345 138.51393224204892 119.70081648681568 H 0.0 **** 0.06
17494 H 30.07395311304864 140.1242704611914 120.33569515022057 H 0.0 **** 0.06
17495 H 31.691146358495622 139.44168767808068 120.63056862165058 H 0.0 **** 0.06
17496 C 150.48851606849064 124.58877654566717 54.30599903301959 C 0.0 **** -0.24
17497 H 150.18712714744657 123.54135077165031 54.303029629518136 H 0.0 **** 0.06
17498 H 151.5231875114396 124.66828208873451 54.639496752971084 H 0.0 **** 0.06
17499 H 149.84350723669297 125.15034684245106 54.98130581108518 H 0.0 **** 0.06
17500 H 150.39978407368378 124.99488037505722 53.29777028641519 H 0.0 **** 0.06
17501 C 5.7567230078413445 8.02987034744423 152.91097967709158 C 0.0 **** -0.24
17502 H 5.263042021031708 8.353192804581091 153.82730195769295 H 0.0 **** 0.06
17503 H 6.750652734766447 8.476271665906772 152.85669821137128 H 0.0 **** 0.06
17504 H 5.168615766270989 8.346735874470312 152.05049962283056 H 0.0 **** 0.06
17505 H 5.845923320443745 6.94341366736127 152.9112027620381 H 0.0 **** 0.06
17506 C 76.53135804739372 47.207467558926496 79.30354632424412 C 0.0 **** -0.24
17507 H 77.41692169755945 47.84360448551554 79.32300713984479 H 0.0 **** 0.06
17508 H 76.19791949183818 47.018605361808355 80.32392206557748 H 0.0 **** 0.06
17509 H 76.77428330297715 46.26260025634902 78.8183289192702 H 0.0 **** 0.06
17510 H 75.73860742642812 47.7076339448155 78.74863205298766 H 0.0 **** 0.06
17511 C 161.5665124721712 124.77198756249567 104.34287387763422 C 0.0 **** -0.24
17512 H 160.51075920479275 124.93296229485625 104.56137338548126 H 0.0 **** 0.06
17513 H 162.1695548821558 125.14339409500002 105.17126924666059 H 0.0 **** 0.06
17514 H 161.83354103750605 125.30423162385685 103.43006401160153 H 0.0 **** 0.06
17515 H 161.74991642319816 123.70584975140144 104.20806651431343 H 0.0 **** 0.06
17516 C 21.418182390743198 106.07928738601169 119.20535663091249 C 0.0 **** -0.24
17517 H 22.477988259714223 106.10551994595846 119.45631517573062 H 0.0 **** 0.06
17518 H 20.827657692091165 106.09684541223106 120.12174310654368 H 0.0 **** 0.06
17519 H 21.1989023703539 105.16732331831818 118.64950171552843 H 0.0 **** 0.06
17520 H 21.16742501680831 106.94677908698603 118.59484803534366 H 0.0 **** 0.06
17521 C 22.457746093791243 140.4041980894807 161.65207860417024 C 0.0 **** -0.24
17522 H 23.01219855455524 140.4176163988661 160.713483756866 H 0.0 **** 0.06
17523 H 21.437739072827682 140.74687669557215 161.47724463920434 H 0.0 **** 0.06
17524 H 22.944035754966826 141.06446761525763 162.37061349789104 H 0.0 **** 0.06
17525 H 22.438596699905226 139.38924531287006 162.04767054578645 H 0.0 **** 0.06
17526 C 161.13348611737567 65.8906223305109 109.7256087576508 C 0.0 **** -0.24
17527 H 160.69693726784422 64.93718737655401 110.02558840976758 H 0.0 **** 0.06
17528 H 161.5603487379672 65.79655262819193 108.72719799869606 H 0.0 **** 0.06
17529 H 161.91677586515465 66.16842082793275 110.43178370825873 H 0.0 **** 0.06
17530 H 160.36044298334983 66.65802564978057 109.72058213508089 H 0.0 **** 0.06
17531 C 5.692285558044375 139.85588138533404 101.92481397622518 C 0.0 **** -0.24
17532 H 5.7597686592970945 140.3706991195254 102.88275059276549 H 0.0 **** 0.06
17533 H 5.436421113264231 140.57340100160866 101.14434560262166 H 0.0 **** 0.06
17534 H 4.920860936196476 139.0870894174983 101.97943860115771 H 0.0 **** 0.06
17535 H 6.651467999607149 139.39304643536576 101.69239471339898 H 0.0 **** 0.06
17536 C 162.16059783110342 162.6679521604337 50.542985507360044 C 0.0 **** -0.24
17537 H 161.95307738207612 162.5129396729293 49.48420495970504 H 0.0 **** 0.06
17538 H 161.42135503215528 163.3521262380702 50.96140971602978 H 0.0 **** 0.06
17539 H 163.1563190172958 163.09338863068785 50.658873031255595 H 0.0 **** 0.06
17540 H 162.10929412913634 161.71354311224087 51.066774728527506 H 0.0 **** 0.06
17541 C 146.86598489044505 15.830573574756215 29.906319032603847 C 0.0 **** -0.24
17542 H 146.9804500056631 15.215579664117683 30.79895786429205 H 0.0 **** 0.06
17543 H 147.5982974341717 16.63712258488806 29.92461819543894 H 0.0 **** 0.06
17544 H 145.86080687831344 16.25198927468017 29.882934415261502 H 0.0 **** 0.06
17545 H 147.02248999873748 15.216462824935718 29.019818623109018 H 0.0 **** 0.06
17546 C 14.768422248947843 155.27433566070027 89.94759147393087 C 0.0 **** -0.24
17547 H 13.811115397800279 155.5474344310885 89.50362468352817 H 0.0 **** 0.06
17548 H 15.044266727574694 156.01326337027598 90.6998896316927 H 0.0 **** 0.06
17549 H 15.532122303467133 155.24309014634065 89.17115166982356 H 0.0 **** 0.06
17550 H 14.684779644365477 154.29226761209196 90.4145295428844 H 0.0 **** 0.06
17551 C 79.2642729326221 20.78484830495728 86.496922942439 C 0.0 **** -0.24
17552 H 79.63932343438695 21.701104517529757 86.95254177450968 H 0.0 **** 0.06
17553 H 78.61065647916287 20.27025830559853 87.20082386009418 H 0.0 **** 0.06
17554 H 80.10233719224738 20.137388226348605 86.23915250925018 H 0.0 **** 0.06
17555 H 78.70488880758359 21.030927187658506 85.59379312318134 H 0.0 **** 0.06
17556 C 53.008217563698125 85.39459087583624 47.76240168434788 C 0.0 **** -0.24
17557 H 53.20672374173161 84.75148436074393 46.904785117724145 H 0.0 **** 0.06
17558 H 53.44402124366633 84.95056397786033 48.6583431854645 H 0.0 **** 0.06
17559 H 51.9314410668033 85.49961687884989 47.895952336619246 H 0.0 **** 0.06
17560 H 53.45041283738219 86.37540964395716 47.59001051708577 H 0.0 **** 0.06
17561 C 10.463420483395794 161.53181921975593 24.870006470666112 C 0.0 **** -0.24
17562 H 11.473635141763964 161.29991279877623 24.532433342448314 H 0.0 **** 0.06
17563 H 10.492225788561825 161.8423918592149 25.914650314239395 H 0.0 **** 0.06
17564 H 9.83582737334325 160.6452512030372 24.7723031663121 H 0.0 **** 0.06
17565 H 10.052703723656634 162.33726631131884 24.262210827341164 H 0.0 **** 0.06
17566 C 69.28377435054404 122.82441885202502 153.86013729436408 C 0.0 **** -0.24
17567 H 68.50764795978807 122.37798524508582 153.23878014606407 H 0.0 **** 0.06
17568 H 68.84764529832448 123.60875427856536 154.47819329725732 H 0.0 **** 0.06
17569 H 70.0567476977206 123.25272784782766 153.2219010763386 H 0.0 **** 0.06
17570 H 69.72298610105106 122.0592420948314 154.4994552082614 H 0.0 **** 0.06
17571 C 148.59522010180032 122.67956675805351 90.61793116574682 C 0.0 **** -0.24
17572 H 149.5451688199441 123.17884073064658 90.81199514073572 H 0.0 **** 0.06
17573 H 148.42885502494673 121.90980301892438 91.37116903474947 H 0.0 **** 0.06
17574 H 148.62206415099934 122.22197901228958 89.62925341621198 H 0.0 **** 0.06
17575 H 147.78683084112436 123.4098412732277 90.65917196434995 H 0.0 **** 0.06
17576 C 21.55825367936619 121.19608502033435 111.3486701530752 C 0.0 **** -0.24
17577 H 21.262728559829455 121.77165987245044 112.22535043784725 H 0.0 **** 0.06
17578 H 22.42217131709134 120.5778521598275 111.59496943307369 H 0.0 **** 0.06
17579 H 21.818013139631148 121.8772520197245 110.53745412704367 H 0.0 **** 0.06
17580 H 20.7316435514928 120.55835469006567 111.03677826015567 H 0.0 **** 0.06
17581 C 32.77423017329204 148.1276354369873 61.86050120930469 C 0.0 **** -0.24
17582 H 32.6061456734075 148.63051026931808 62.81274768684062 H 0.0 **** 0.06
17583 H 33.63195801294728 148.57554660115716 61.35895620538395 H 0.0 **** 0.06
17584 H 31.889677200704682 148.2348011983877 61.23250566787709 H 0.0 **** 0.06
17585 H 32.96755448641818 147.06994181715453 62.03714703583762 H 0.0 **** 0.06
17586 C 131.69556133409424 96.41694748032174 98.8332726342826 C 0.0 **** -0.24
17587 H 131.7779260616785 95.86322338281585 97.89807665060442 H 0.0 **** 0.06
17588 H 130.64415703311965 96.55171282924081 99.08416923857033 H 0.0 **** 0.06
17589 H 132.17158101565184 97.3917478598641 98.72053230369806 H 0.0 **** 0.06
17590 H 132.19161947921026 95.86089471769671 99.62838236168159 H 0.0 **** 0.06
17591 C 124.97668637874392 62.340498273040225 97.30123313850675 C 0.0 **** -0.24
17592 H 125.05765353098585 62.001523113452635 96.26898995802183 H 0.0 **** 0.06
17593 H 123.92955630931064 62.32760810439095 97.60652868381368 H 0.0 **** 0.06
17594 H 125.36632560152859 63.35543972700006 97.3817935906284 H 0.0 **** 0.06
17595 H 125.55230256635039 61.678404192414135 97.94715980099363 H 0.0 **** 0.06
17596 C 95.93547455514334 17.33090209433783 113.58464945673845 C 0.0 **** -0.24
17597 H 96.8049554412193 17.185517843990908 112.94390594187257 H 0.0 **** 0.06
17598 H 96.00973724036204 18.298633188238625 114.08186718957322 H 0.0 **** 0.06
17599 H 95.89825048646564 16.540104660669613 114.33310159819541 H 0.0 **** 0.06
17600 H 95.02961214953885 17.302330461312863 112.97888561878506 H 0.0 **** 0.06
17601 C 24.89614505339091 15.046605633195469 71.50217960227923 C 0.0 **** -0.24
17602 H 24.53206387651477 14.68223697309842 72.46260566455364 H 0.0 **** 0.06
17603 H 24.06761734967847 15.478559538827021 70.94009904764656 H 0.0 **** 0.06
17604 H 25.325291907143793 14.218514763328166 70.93886502001962 H 0.0 **** 0.06
17605 H 25.659311385203864 15.807108832375818 71.66810397200993 H 0.0 **** 0.06
17606 C 37.138861774602304 51.38539856656678 16.19398318098004 C 0.0 **** -0.24
17607 H 36.2714786202165 51.50922112441771 15.54643375392773 H 0.0 **** 0.06
17608 H 36.88303982688009 51.695823117651 17.20704121724188 H 0.0 **** 0.06
17609 H 37.95939543623541 51.99862973523017 15.822139282907692 H 0.0 **** 0.06
17610 H 37.44144260578955 50.3381749863035 16.19893031294105 H 0.0 **** 0.06
17611 C 113.20428852545461 107.07524949791969 140.6062106012705 C 0.0 **** -0.24
17612 H 114.05118732727288 107.76043762865663 140.5888477593493 H 0.0 **** 0.06
17613 H 112.67983289950158 107.17059401181177 141.55680492382658 H 0.0 **** 0.06
17614 H 113.56282014044885 106.05284756715344 140.48861716545446 H 0.0 **** 0.06
17615 H 112.52371999784947 107.31833862534529 139.78941194112383 H 0.0 **** 0.06
17616 C 38.62273225586256 19.78645558060407 61.97509361401468 C 0.0 **** -0.24
17617 H 39.696563228049925 19.73502452753229 61.79547528698663 H 0.0 **** 0.06
17618 H 38.31021003406626 20.830392653872195 62.00801955561123 H 0.0 **** 0.06
17619 H 38.38892046310852 19.30628723904067 62.92483633667284 H 0.0 **** 0.06
17620 H 38.09573663395854 19.27468590639114 61.1699394268973 H 0.0 **** 0.06
17621 C 35.727360434807125 36.348145261746424 162.5370371031296 C 0.0 **** -0.24
17622 H 36.3603925962215 36.894294275724405 161.83830227002147 H 0.0 **** 0.06
17623 H 34.683627534867554 36.60703253063838 162.36135601072937 H 0.0 **** 0.06
17624 H 36.00135523250127 36.61304799025629 163.55778742680158 H 0.0 **** 0.06
17625 H 35.866071542052325 35.277019983811044 162.38994622602368 H 0.0 **** 0.06
17626 C 93.08463693992326 141.92648404417844 118.91507887864074 C 0.0 **** -0.24
17627 H 92.55564606089865 141.01143423403607 118.64849426885485 H 0.0 **** 0.06
17628 H 94.11725265440981 141.68668617462657 119.1701409232038 H 0.0 **** 0.06
17629 H 92.59631047445686 142.39214058255203 119.77081195120371 H 0.0 **** 0.06
17630 H 93.07009208454215 142.6142946263684 118.06963289854409 H 0.0 **** 0.06
17631 C 117.2585242760529 41.95041239252623 102.10976330542772 C 0.0 **** -0.24
17632 H 117.59244870616521 42.759724618151154 102.75984720960938 H 0.0 **** 0.06
17633 H 116.46178716511136 41.39403057988585 102.60451894375399 H 0.0 **** 0.06
17634 H 118.09373880656605 41.28340384493191 101.90146046312123 H 0.0 **** 0.06
17635 H 116.88412236351394 42.36753374679418 101.175160274212 H 0.0 **** 0.06
17636 C 79.89761783745294 136.51369238726724 149.77641521566386 C 0.0 **** -0.24
17637 H 80.8583182462068 136.10767010917687 149.46358072801291 H 0.0 **** 0.06
17638 H 79.62741058218805 136.09995054855764 150.7482745697889 H 0.0 **** 0.06
17639 H 79.13467223539283 136.2490739090001 149.04378437551242 H 0.0 **** 0.06
17640 H 79.96867889613277 137.59909815159205 149.84988985244104 H 0.0 **** 0.06
17641 C 91.22443734854356 60.82379333159412 142.7636171063708 C 0.0 **** -0.24
17642 H 92.22341404844177 61.06152771227323 142.39857222971264 H 0.0 **** 0.06
17643 H 90.9231386075726 59.846574712325435 142.3860198325058 H 0.0 **** 0.06
17644 H 90.52143996418637 61.58084144130058 142.4160661121448 H 0.0 **** 0.06
17645 H 91.23037378057187 60.80697910234716 143.85357073054752 H 0.0 **** 0.06
17646 C 90.7260058210777 146.22063811512348 41.41463319348958 C 0.0 **** -0.24
17647 H 91.19172904742112 146.62730237853668 42.31198256321021 H 0.0 **** 0.06
17648 H 89.67175930667071 146.02578438444527 41.60885764347812 H 0.0 **** 0.06
17649 H 91.22254997140294 145.2902745849229 41.13708410511113 H 0.0 **** 0.06
17650 H 90.81979077333395 146.9388339114964 40.59982643784505 H 0.0 **** 0.06
17651 C 95.45733164101767 94.36932229159345 0.32180807319306837 C 0.0 **** -0.24
17652 H 95.739287076778 95.16385054193387 -0.3674203202886588 H 0.0 **** 0.06
17653 H 96.18018571564073 94.32071265687387 1.1359284163636403 H 0.0 **** 0.06
17654 H 95.4426705405034 93.4166271430316 -0.20809180233317193 H 0.0 **** 0.06
17655 H 94.46597295411294 94.57426891874957 0.7272482318568905 H 0.0 **** 0.06
17656 C 143.27273898284398 67.7328060492766 155.90096897060596 C 0.0 **** -0.24
17657 H 142.92628996304907 67.66480189344212 156.9320244279178 H 0.0 **** 0.06
17658 H 142.55625532758955 68.30847335380821 155.31454830409618 H 0.0 **** 0.06
17659 H 143.3632123931604 66.73025518536345 155.48208449609228 H 0.0 **** 0.06
17660 H 144.24353055659182 68.22633133789876 155.87638603670354 H 0.0 **** 0.06
17661 C 23.82729284485105 131.58371327496974 128.06876605373768 C 0.0 **** -0.24
17662 H 23.302098369910773 131.353635983929 127.14087591523867 H 0.0 **** 0.06
17663 H 24.903361938984183 131.56116530156567 127.89171295402659 H 0.0 **** 0.06
17664 H 23.56761486640456 130.84419234362056 128.82584529471907 H 0.0 **** 0.06
17665 H 23.53605202566498 132.5758540398804 128.41288860187643 H 0.0 **** 0.06
17666 C 81.18747012315265 132.50538952700478 71.70212011760681 C 0.0 **** -0.24
17667 H 81.08276105347073 131.42052650279817 71.69345517331165 H 0.0 **** 0.06
17668 H 81.4966279600457 132.848641326311 70.71436330589034 H 0.0 **** 0.06
17669 H 81.9398554956474 132.79102510723928 72.43782824430451 H 0.0 **** 0.06
17670 H 80.23298233582118 132.9610176737247 71.96344534874615 H 0.0 **** 0.06
17671 C 138.6243430574226 17.103698310651964 116.69013450922006 C 0.0 **** -0.24
17672 H 137.84020580200072 16.78220189780899 117.37501891758552 H 0.0 **** 0.06
17673 H 139.13192700479084 17.97621561970729 117.10298917632599 H 0.0 **** 0.06
17674 H 138.18207559858365 17.363028067551454 115.72750089739702 H 0.0 **** 0.06
17675 H 139.34256708065 16.29572835681853 116.55330380948237 H 0.0 **** 0.06
17676 C 160.36750638967595 91.99533119084276 85.41351033715446 C 0.0 **** -0.24
17677 H 160.1251081942309 92.86989102844922 86.01847406018882 H 0.0 **** 0.06
17678 H 161.3924830338525 91.68501121125183 85.61969783410619 H 0.0 **** 0.06
17679 H 160.26968354121175 92.24581773614462 84.3581222672298 H 0.0 **** 0.06
17680 H 159.68523660456054 91.18251742460318 85.65952565125617 H 0.0 **** 0.06
17681 C 24.876650320823614 123.4739940971238 156.2577201896765 C 0.0 **** -0.24
17682 H 24.83781670405557 123.31202895280393 155.18002211948945 H 0.0 **** 0.06
17683 H 25.914483660229678 123.45749153710898 156.59013329711308 H 0.0 **** 0.06
17684 H 24.319381081067093 122.68587636485316 156.76311435289887 H 0.0 **** 0.06
17685 H 24.43385106205858 124.4419748184412 156.49388118870792 H 0.0 **** 0.06
17686 C 14.97639218328959 96.81363854972372 46.60090394696334 C 0.0 **** -0.24
17687 H 15.416153626422926 96.731456015774 45.60706052211569 H 0.0 **** 0.06
17688 H 14.366845571036265 97.71648237735525 46.65456818195747 H 0.0 **** 0.06
17689 H 15.769933205754285 96.86563563231607 47.34683881472091 H 0.0 **** 0.06
17690 H 14.351365764739597 95.94160123436762 46.79514548428563 H 0.0 **** 0.06
17691 C 32.30839828982033 86.04880411268631 27.970388762856146 C 0.0 **** -0.24
17692 H 33.28886901774297 85.7131026887776 28.309915783336038 H 0.0 **** 0.06
17693 H 32.260750802825555 85.9842258528852 26.8831058019731 H 0.0 **** 0.06
17694 H 32.15036867694198 87.08074581101485 28.280575429189327 H 0.0 **** 0.06
17695 H 31.53719912763887 85.41522303973882 28.406775846799462 H 0.0 **** 0.06
17696 C 135.68388890589705 143.82346743685474 56.080104394247684 C 0.0 **** -0.24
17697 H 135.76615907207318 143.38408045003231 55.085891360179744 H 0.0 **** 0.06
17698 H 136.5745692467085 144.41488480576038 56.2903634197184 H 0.0 **** 0.06
17699 H 135.58999108103058 143.0292492234521 56.82103522654518 H 0.0 **** 0.06
17700 H 134.80270379924522 144.46417471161732 56.12162391183489 H 0.0 **** 0.06
17701 C 66.64838010781413 120.42988626167795 48.79501956660786 C 0.0 **** -0.24
17702 H 66.52225091795188 121.50081639504074 48.95602252164356 H 0.0 **** 0.06
17703 H 65.78871061311077 120.04130374857118 48.2491250309335 H 0.0 **** 0.06
17704 H 66.72680088765676 119.92468433599765 49.75767373653203 H 0.0 **** 0.06
17705 H 67.55569976583755 120.253699567241 48.21753438719257 H 0.0 **** 0.06
17706 C 115.9124248913721 138.8972138564898 96.24056756546885 C 0.0 **** -0.24
17707 H 116.85755112580466 138.93105941058323 96.78292146200289 H 0.0 **** 0.06
17708 H 115.73981427594674 137.88530759733982 95.8745250228759 H 0.0 **** 0.06
17709 H 115.95293073069024 139.5870348432985 95.39726681509788 H 0.0 **** 0.06
17710 H 115.10041878999846 139.18682746532696 96.9078425585532 H 0.0 **** 0.06
17711 C 101.03824276493353 102.85847900515921 117.52836490568427 C 0.0 **** -0.24
17712 H 101.20819075349334 102.57085513024731 118.56529643933794 H 0.0 **** 0.06
17713 H 101.35915352292164 102.05017578355262 116.8708004129013 H 0.0 **** 0.06
17714 H 101.6081930913148 103.75940820779635 117.3023006698902 H 0.0 **** 0.06
17715 H 99.9759477261014 103.05154355280774 117.37482916551022 H 0.0 **** 0.06
17716 C 20.32989582613743 31.273894081381606 73.54988176304005 C 0.0 **** -0.24
17717 H 19.96068296639976 32.124442909014874 74.12291528075673 H 0.0 **** 0.06
17718 H 20.48407941565725 30.42552483519261 74.21764215279535 H 0.0 **** 0.06
17719 H 21.27458241683277 31.538483599992148 73.07481388500105 H 0.0 **** 0.06
17720 H 19.600512937905023 31.006615760416587 72.78497146100472 H 0.0 **** 0.06
17721 C 161.5240475943219 107.6231986584774 14.096158161310541 C 0.0 **** -0.24
17722 H 161.84923411979713 107.45817999460064 13.068814776907999 H 0.0 **** 0.06
17723 H 161.12146678407836 106.69606077214203 14.502847053652431 H 0.0 **** 0.06
17724 H 160.7533601643467 108.39382538030523 14.113368546394383 H 0.0 **** 0.06
17725 H 162.37396366284062 107.94579392780855 14.697256999940805 H 0.0 **** 0.06
17726 C 146.32187520217394 103.12186041606424 110.27464754811294 C 0.0 **** -0.24
17727 H 146.7621764691736 104.04445284624524 110.6536830033123 H 0.0 **** 0.06
17728 H 146.53013020043795 102.30864677570167 110.96929728737413 H 0.0 **** 0.06
17729 H 146.75259231523808 102.88905650181496 109.3006224087442 H 0.0 **** 0.06
17730 H 145.24411248223294 103.24870370297057 110.17517323222484 H 0.0 **** 0.06
17731 C 110.12731284210952 4.98369941776275 53.12808132244021 C 0.0 **** -0.24
17732 H 109.20224178910041 5.53533638205613 53.29508448953828 H 0.0 **** 0.06
17733 H 109.93143278626394 3.9143522141339133 53.20589142737356 H 0.0 **** 0.06
17734 H 110.86371052808119 5.273776399938697 53.8782110973184 H 0.0 **** 0.06
17735 H 110.51226207721129 5.2119729839101865 52.13379658189342 H 0.0 **** 0.06
17736 C 155.53307909303498 88.31383426628867 112.48439426801195 C 0.0 **** -0.24
17737 H 155.70452920682237 87.69297589661244 111.60603582920007 H 0.0 **** 0.06
17738 H 155.9283623372093 89.31442787104857 112.30531748774959 H 0.0 **** 0.06
17739 H 156.03743061870603 87.87319723953465 113.34504776386976 H 0.0 **** 0.06
17740 H 154.46321574069896 88.3749641633685 112.68238260622613 H 0.0 **** 0.06
17741 C 124.74114980707157 131.46829697429055 32.519164681146535 C 0.0 **** -0.24
17742 H 125.72774602003506 131.06155044271918 32.74150908077482 H 0.0 **** 0.06
17743 H 124.84699912985542 132.4625650980732 32.08520998946522 H 0.0 **** 0.06
17744 H 124.15885270601893 131.53246692590653 33.4394805082928 H 0.0 **** 0.06
17745 H 124.22966593448803 130.8145538553177 31.811876145173947 H 0.0 **** 0.06
17746 C 77.63442630240334 66.97967355620914 63.63278680563809 C 0.0 **** -0.24
17747 H 78.03134527248251 66.70594981372398 64.61007769567178 H 0.0 **** 0.06
17748 H 76.92932662087996 66.21831027522248 63.30048991429348 H 0.0 **** 0.06
17749 H 78.45269964163798 67.05504294099235 62.91616621215202 H 0.0 **** 0.06
17750 H 77.12576994051231 67.94104227643294 63.70395381265145 H 0.0 **** 0.06
17751 C 159.5524260706537 2.647113720003034 147.68534823617006 C 0.0 **** -0.24
17752 H 159.6733824618186 3.556143224775468 148.27400836578337 H 0.0 **** 0.06
17753 H 160.51556119361655 2.356671550917355 147.26475108811582 H 0.0 **** 0.06
17754 H 158.84287877155532 2.830592123380228 146.8778111187454 H 0.0 **** 0.06
17755 H 159.17800917452587 1.847317049602509 148.32390842544083 H 0.0 **** 0.06
17756 C 63.1761895707435 23.078692224004612 62.368355389600126 C 0.0 **** -0.24
17757 H 62.46895025802178 23.820903427344092 62.740593198091716 H 0.0 **** 0.06
17758 H 62.649452779522434 22.35369944798481 61.74769792462983 H 0.0 **** 0.06
17759 H 63.641065377604065 22.5664098620731 63.21119353919043 H 0.0 **** 0.06
17760 H 63.94474150573461 23.575412236844386 61.7756564560256 H 0.0 **** 0.06
17761 C 1.0174977200501019 129.91603275051827 50.007557455919084 C 0.0 **** -0.24
17762 H 1.9416472651805918 129.49881825907872 50.408207625684156 H 0.0 **** 0.06
17763 H 1.0121909975909773 129.80971543665288 48.923187917517794 H 0.0 **** 0.06
17764 H 0.9521568486815681 130.97136282890978 50.27058943905456 H 0.0 **** 0.06
17765 H 0.16558994500758217 129.38317383064424 50.43055436562702 H 0.0 **** 0.06
17766 C 41.173306319002975 139.0961331643913 117.50718708058659 C 0.0 **** -0.24
17767 H 41.458812600638524 139.93112540207136 116.8673699334602 H 0.0 **** 0.06
17768 H 40.53473186047525 138.4123747162131 116.94630477975937 H 0.0 **** 0.06
17769 H 40.63106148366779 139.47219123050363 118.37403348465179 H 0.0 **** 0.06
17770 H 42.06871508963407 138.56970444846013 117.83783916333877 H 0.0 **** 0.06
17771 C 29.870212944153437 32.88574045144718 108.58689300696983 C 0.0 **** -0.24
17772 H 28.90096219740267 33.21927498628894 108.21471751981647 H 0.0 **** 0.06
17773 H 30.550770579302558 32.73946595048767 107.74744856848156 H 0.0 **** 0.06
17774 H 29.748860442651086 31.94693640249823 109.12485797330407 H 0.0 **** 0.06
17775 H 30.27915492657523 33.640323660463054 109.25930471987476 H 0.0 **** 0.06
17776 C 42.809853095910185 103.61007298421771 36.65263753556934 C 0.0 **** -0.24
17777 H 43.33119045045099 103.87962313177275 35.73453736992431 H 0.0 **** 0.06
17778 H 41.91971848664974 104.23147473637084 36.76029511825746 H 0.0 **** 0.06
17779 H 43.46905644423413 103.76825320050193 37.50539939008884 H 0.0 **** 0.06
17780 H 42.51727251131322 102.56084174028405 36.609194901351884 H 0.0 **** 0.06
17781 C 15.41380859193248 107.04795899750721 101.36720008504707 C 0.0 **** -0.24
17782 H 15.405523539909552 107.6920065168882 100.48832410855536 H 0.0 **** 0.06
17783 H 15.453991089977023 106.00502733868836 101.05349996307473 H 0.0 **** 0.06
17784 H 14.508737713389252 107.2182213618855 101.95028866235216 H 0.0 **** 0.06
17785 H 16.28757139491222 107.27813148442758 101.97780477043213 H 0.0 **** 0.06
17786 C 78.62416169976143 147.17284401824773 20.900407915446692 C 0.0 **** -0.24
17787 H 79.07525765442261 148.06497727996714 20.465371646454628 H 0.0 **** 0.06
17788 H 77.55474477867159 147.16625548118233 20.687633569881996 H 0.0 **** 0.06
17789 H 78.78079821038091 147.1758914121555 21.978489792525693 H 0.0 **** 0.06
17790 H 79.08662289908625 146.28500604690166 20.46922671235069 H 0.0 **** 0.06
17791 C 141.56913482957765 16.14916280279339 108.25975670399166 C 0.0 **** -0.24
17792 H 142.28543670363902 16.682497129596904 107.63499757472425 H 0.0 **** 0.06
17793 H 140.55595179622617 16.40338072728398 107.94802244051098 H 0.0 **** 0.06
17794 H 141.7118653184747 16.43583165924276 109.30187898295085 H 0.0 **** 0.06
17795 H 141.72365609139484 15.075448443688074 108.1533494232826 H 0.0 **** 0.06
17796 C 136.61269680361139 63.27923748768052 41.121487451448274 C 0.0 **** -0.24
17797 H 137.49161975161095 63.87761642459799 40.88239135360561 H 0.0 **** 0.06
17798 H 136.45675081683834 62.533916693374294 40.34021241511867 H 0.0 **** 0.06
17799 H 135.73830771831305 63.92722665440709 41.18542989651735 H 0.0 **** 0.06
17800 H 136.7634930106504 62.77720392301967 42.077111151727124 H 0.0 **** 0.06
17801 C 82.8613035342928 146.9256482156025 101.39988525924088 C 0.0 **** -0.24
17802 H 81.78909830653492 147.1226094150287 101.40782898795248 H 0.0 **** 0.06
17803 H 83.08884592715611 146.19382106355116 100.62427945776415 H 0.0 **** 0.06
17804 H 83.16597335661976 146.5350448110161 102.36987602234564 H 0.0 **** 0.06
17805 H 83.3986629256454 147.85152460328655 101.19493001450223 H 0.0 **** 0.06
17806 C 98.90266210486203 26.57936984492261 20.791303704879738 C 0.0 **** -0.24
17807 H 99.60140505630272 25.76193071784877 20.96833592734862 H 0.0 **** 0.06
17808 H 98.81318877543595 26.75407366592077 19.71927667905527 H 0.0 **** 0.06
17809 H 99.26893337549586 27.483343507026916 21.277706649631966 H 0.0 **** 0.06
17810 H 97.92631381601541 26.3177013083411 21.199491724095424 H 0.0 **** 0.06
17811 C 25.229082227251382 43.71392811304318 104.13209439424935 C 0.0 **** -0.24
17812 H 24.624751735282246 43.1353665228454 104.83111371662713 H 0.0 **** 0.06
17813 H 25.89032347767565 44.37868308265841 104.68802037651068 H 0.0 **** 0.06
17814 H 24.57501275879264 44.30373990560928 103.48923433063416 H 0.0 **** 0.06
17815 H 25.823927357570994 43.03646909932823 103.52073986158524 H 0.0 **** 0.06
17816 C 122.96966013193432 60.04654941636127 61.86211267199411 C 0.0 **** -0.24
17817 H 122.34801597051515 60.40340113748336 62.683407532492765 H 0.0 **** 0.06
17818 H 123.16603308589353 60.86760772860795 61.171543478140734 H 0.0 **** 0.06
17819 H 122.4518909953494 59.244814453386084 61.33645784387488 H 0.0 **** 0.06
17820 H 123.91398192548039 59.671365785988485 62.258878982057865 H 0.0 **** 0.06
17821 C 113.35067201474655 94.72114116955254 41.442331215790375 C 0.0 **** -0.24
17822 H 113.08082648528045 94.90868707560375 40.40330053128508 H 0.0 **** 0.06
17823 H 112.79090819465435 95.39647877504197 42.08995260379146 H 0.0 **** 0.06
17824 H 114.41898669774298 94.89098190115635 41.57656877272308 H 0.0 **** 0.06
17825 H 113.11087365232314 93.6892376517506 41.699139970638726 H 0.0 **** 0.06
17826 C 62.772819477335275 113.60138019806894 80.55178011422522 C 0.0 **** -0.24
17827 H 63.19013669829167 114.54781973621868 80.89782554521135 H 0.0 **** 0.06
17828 H 61.98943484368036 113.27795510649858 81.23792485960458 H 0.0 **** 0.06
17829 H 63.559719320762156 112.84820758065544 80.51691625847306 H 0.0 **** 0.06
17830 H 62.351088832260245 113.73416694408999 79.55558696398509 H 0.0 **** 0.06
17831 C 28.09915971724905 1.3382351461756485 144.833042800125 C 0.0 **** -0.24
17832 H 28.081307863692757 1.038544664792191 143.78530629887942 H 0.0 **** 0.06
17833 H 28.931510544918467 2.022541464391864 145.00002736387754 H 0.0 **** 0.06
17834 H 28.221711249213683 0.45613050506435115 145.46093877740287 H 0.0 **** 0.06
17835 H 27.162760475382413 1.8359938002377092 145.08467275202793 H 0.0 **** 0.06
17836 C 137.80012145499967 153.4893919846442 103.69796650215272 C 0.0 **** -0.24
17837 H 138.77606416933764 153.45697116995908 103.21408474844273 H 0.0 **** 0.06
17838 H 137.91153301911447 153.86567115681225 104.71549603095741 H 0.0 **** 0.06
17839 H 137.37377264226447 152.48723892460904 103.72520161790004 H 0.0 **** 0.06
17840 H 137.1391671617904 154.150844532604 103.13724390964592 H 0.0 **** 0.06
17841 C 27.43717550726612 44.34148106678052 119.20284639396363 C 0.0 **** -0.24
17842 H 28.155897282263943 44.24678464976411 118.38851447659943 H 0.0 **** 0.06
17843 H 26.816276874886363 45.22295010623412 119.03752510385274 H 0.0 **** 0.06
17844 H 27.971437762969572 44.44493174985671 120.14779331480261 H 0.0 **** 0.06
17845 H 26.806703767554026 43.45360982457487 119.23662307008473 H 0.0 **** 0.06
17846 C 148.7184392655169 113.84390233186093 28.905966162522006 C 0.0 **** -0.24
17847 H 149.1536700518489 112.88009540833752 29.16987756732781 H 0.0 **** 0.06
17848 H 147.7274722667614 113.69080472935397 28.47805682488754 H 0.0 **** 0.06
17849 H 149.35625299975666 114.34291850875448 28.177153897269875 H 0.0 **** 0.06
17850 H 148.63676815717247 114.46220491712168 29.80006604927975 H 0.0 **** 0.06
17851 C 99.09884060432935 62.93948175645386 69.00192331859643 C 0.0 **** -0.24
17852 H 99.9420202925742 63.219347101913684 69.63460436122583 H 0.0 **** 0.06
17853 H 99.47107772972922 62.485749294984316 68.08219493524476 H 0.0 **** 0.06
17854 H 98.51696430245909 63.827865251007836 68.75943714034291 H 0.0 **** 0.06
17855 H 98.46997633864981 62.22486528568149 69.53180807533889 H 0.0 **** 0.06
17856 C 25.036422773206198 66.56479836890891 147.81421320574538 C 0.0 **** -0.24
17857 H 24.03370645254688 66.99181468131682 147.8287011948777 H 0.0 **** 0.06
17858 H 25.29175923713109 66.27320225104931 146.79505233785287 H 0.0 **** 0.06
17859 H 25.067658629225548 65.68874998392643 148.46176350802648 H 0.0 **** 0.06
17860 H 25.75256677392116 67.30542655934273 148.17133578222462 H 0.0 **** 0.06
17861 C 159.4787247150777 98.7375659994365 84.78927779218594 C 0.0 **** -0.24
17862 H 160.06888538105915 98.52138176961807 83.8977730673356 H 0.0 **** 0.06
17863 H 160.10562524041362 98.62876372024328 85.67448040235581 H 0.0 **** 0.06
17864 H 158.64191700311622 98.04073424253164 84.84793140824812 H 0.0 **** 0.06
17865 H 159.09949488933773 99.75787988226418 84.7343399291516 H 0.0 **** 0.06
17866 C 104.94024776769629 55.54853531221809 19.291010786340962 C 0.0 **** -0.24
17867 H 104.1109563204999 54.84700865813355 19.38409632764825 H 0.0 **** 0.06
17868 H 105.6835064953965 55.14253784289505 18.604697169768258 H 0.0 **** 0.06
17869 H 105.39511060954254 55.7044958190977 20.268878850867935 H 0.0 **** 0.06
17870 H 104.57056174930705 56.49829348598604 18.906281695280455 H 0.0 **** 0.06
17871 C 60.67336220828912 120.28845471317246 97.83262536525865 C 0.0 **** -0.24
17872 H 61.69879951216319 120.29665578040303 98.20151006408602 H 0.0 **** 0.06
17873 H 59.99887425951118 120.60032749529907 98.6309086930649 H 0.0 **** 0.06
17874 H 60.412436415577076 119.281185267717 97.5088000515544 H 0.0 **** 0.06
17875 H 60.584053264981264 120.97528351523383 96.99217316324103 H 0.0 **** 0.06
17876 C 57.10632676203778 150.97951623722173 21.791904946046316 C 0.0 **** -0.24
17877 H 56.7520127629888 151.9736077221285 22.06363192339552 H 0.0 **** 0.06
17878 H 58.1930661197859 150.9896743492779 21.714624896397765 H 0.0 **** 0.06
17879 H 56.67630303264053 150.69061161932336 20.83220728054718 H 0.0 **** 0.06
17880 H 56.80186414524704 150.2644711794406 22.5558662813186 H 0.0 **** 0.06
17881 C 133.3029768325551 14.631169810727364 22.20244365204036 C 0.0 **** -0.24
17882 H 133.31712935836168 13.62790330243132 21.776400367947133 H 0.0 **** 0.06
17883 H 132.7613173187923 15.301049454490112 21.532754047929643 H 0.0 **** 0.06
17884 H 134.32477635932764 14.98830652612029 22.324848326356033 H 0.0 **** 0.06
17885 H 132.8066592038869 14.606278986485961 23.172084351283814 H 0.0 **** 0.06
17886 C 99.23068192450808 158.98128784031957 75.95313260101128 C 0.0 **** -0.24
17887 H 99.32854218883048 159.84106950683926 76.61607959471252 H 0.0 **** 0.06
17888 H 100.20610837640098 158.51471797588607 75.81640789043843 H 0.0 **** 0.06
17889 H 98.84609523916117 159.31062717942365 74.98739010682459 H 0.0 **** 0.06
17890 H 98.54086834825026 158.2606656485076 76.39245451466292 H 0.0 **** 0.06
17891 C 62.34026047206697 29.072017363007234 31.575120949705067 C 0.0 **** -0.24
17892 H 63.22960842144934 29.696346985738984 31.652228406410273 H 0.0 **** 0.06
17893 H 61.99349975231321 29.059776722675167 30.54126744925931 H 0.0 **** 0.06
17894 H 61.55699892892592 29.474964007316373 32.21719354168971 H 0.0 **** 0.06
17895 H 62.58064003991878 28.0557471040525 31.889170808185796 H 0.0 **** 0.06
17896 C 141.96281889542277 37.76849744750555 106.8557521916704 C 0.0 **** -0.24
17897 H 142.60470362647436 37.25247647831087 107.56963887878604 H 0.0 **** 0.06
17898 H 142.14777136464053 38.84171333815155 106.91031516905105 H 0.0 **** 0.06
17899 H 140.91850683084135 37.56770892434953 107.09508279790575 H 0.0 **** 0.06
17900 H 142.1798158352285 37.41314894590653 105.84877969758256 H 0.0 **** 0.06
17901 C 9.921814403831263 31.406862217240175 28.70354089246122 C 0.0 **** -0.24
17902 H 10.757448274109038 30.96027534209798 29.24335668008461 H 0.0 **** 0.06
17903 H 9.940228348546157 31.070831550679472 27.665695893264065 H 0.0 **** 0.06
17904 H 10.007467968918206 32.49349535125789 28.73580211282225 H 0.0 **** 0.06
17905 H 8.984503110241803 31.101732303563466 29.167297390086546 H 0.0 **** 0.06
17906 C 85.97954945133188 97.97384123309624 33.777456430110874 C 0.0 **** -0.24
17907 H 86.14831235765024 97.22550884537293 33.00118865123005 H 0.0 **** 0.06
17908 H 86.73485971273641 98.75507877358072 33.697330626408814 H 0.0 **** 0.06
17909 H 86.0472243613608 97.50154770840237 34.75709195702552 H 0.0 **** 0.06
17910 H 84.98869951804801 98.40950787067305 33.651504745227044 H 0.0 **** 0.06
17911 C 26.0873072330439 126.32472814330819 102.24328110945626 C 0.0 **** -0.24
17912 H 27.08990137161075 126.64382620641331 102.52650937292287 H 0.0 **** 0.06
17913 H 26.155173229191405 125.52477278732874 101.50543524714635 H 0.0 **** 0.06
17914 H 25.54431066004284 127.16734856110469 101.8158967492914 H 0.0 **** 0.06
17915 H 25.55902032883472 125.96184331817392 103.12503017297374 H 0.0 **** 0.06
17916 C 108.24204164717634 92.05453752072293 26.592232694042913 C 0.0 **** -0.24
17917 H 107.50673916198602 92.24141734672463 25.81042517104042 H 0.0 **** 0.06
17918 H 109.0605885739385 91.45908821467212 26.1861108513355 H 0.0 **** 0.06
17919 H 107.77049432205465 91.51214881290318 27.41235189084582 H 0.0 **** 0.06
17920 H 108.63102702930817 93.0039069155495 26.960142977357357 H 0.0 **** 0.06
17921 C 11.3029252885392 25.592576688382906 145.31042413359978 C 0.0 **** -0.24
17922 H 10.231427216757737 25.65289556314832 145.49896417451393 H 0.0 **** 0.06
17923 H 11.661007462368644 24.593818193106927 145.56014493929533 H 0.0 **** 0.06
17924 H 11.822171240743955 26.328938020910698 145.92309815636776 H 0.0 **** 0.06
17925 H 11.497799860722154 25.79561822958692 144.2565607925015 H 0.0 **** 0.06
17926 C 16.56452797302046 83.50116603857622 107.88238180346627 C 0.0 **** -0.24
17927 H 15.90011850514145 84.06684971652685 108.53445376816609 H 0.0 **** 0.06
17928 H 17.598457377728778 83.66962215929597 108.18400140696886 H 0.0 **** 0.06
17929 H 16.428405846786518 83.82934696404203 106.85215906668236 H 0.0 **** 0.06
17930 H 16.332256002370684 82.43937500909325 107.95958525796303 H 0.0 **** 0.06
17931 C 86.11088936075635 46.39199711446412 60.13121690738045 C 0.0 **** -0.24
17932 H 85.07658920077732 46.48026660458379 59.79820858469971 H 0.0 **** 0.06
17933 H 86.13389396666744 46.27533904527195 61.214627971263496 H 0.0 **** 0.06
17934 H 86.66045908425185 47.289739244567244 59.85044653241421 H 0.0 **** 0.06
17935 H 86.57065535806444 45.52230926417394 59.6613667837061 H 0.0 **** 0.06
17936 C 11.973399812892417 10.892348588376649 81.79187094572671 C 0.0 **** -0.24
17937 H 13.034920639376615 10.667403078992038 81.69656690279214 H 0.0 **** 0.06
17938 H 11.762678977841588 11.85653296569393 81.32824383331443 H 0.0 **** 0.06
17939 H 11.703188953107478 10.929205794042161 82.84762495131376 H 0.0 **** 0.06
17940 H 11.391166383011772 10.115749282721595 81.29525577639855 H 0.0 **** 0.06
17941 C 137.20353313336363 50.949903316772975 125.20608888048844 C 0.0 **** -0.24
17942 H 138.18544972608737 51.10496172760713 125.65382381010994 H 0.0 **** 0.06
17943 H 136.69564148301362 51.90911726630122 125.10391482315629 H 0.0 **** 0.06
17944 H 136.61396788413344 50.29122629472067 125.8435606404089 H 0.0 **** 0.06
17945 H 137.32134586007106 50.49401964995502 124.22218840280163 H 0.0 **** 0.06
17946 C 117.88598727188119 129.03224530179784 1.7127039704269436 C 0.0 **** -0.24
17947 H 117.06520782775681 129.73866117363144 1.5934666425900588 H 0.0 **** 0.06
17948 H 117.70087193288376 128.15288837280454 1.095087920379207 H 0.0 **** 0.06
17949 H 117.95906367830926 128.73403024558792 2.759141981623948 H 0.0 **** 0.06
17950 H 118.81817597668936 129.5041778168582 1.4031466118478022 H 0.0 **** 0.06
17951 C 129.2771140773915 86.21863264454132 134.47799103703363 C 0.0 **** -0.24
17952 H 128.73781961187842 85.36293570497249 134.8845400378929 H 0.0 **** 0.06
17953 H 129.09389461650858 87.09305522969704 135.10290354744507 H 0.0 **** 0.06
17954 H 128.92944528338 86.4172011219352 133.4636819834123 H 0.0 **** 0.06
17955 H 130.34487521186202 85.9997778972136 134.4600015340935 H 0.0 **** 0.06
17956 C 70.7185513691686 63.00795131595794 42.47909787551582 C 0.0 **** -0.24
17957 H 70.20175160332164 62.48666865594856 43.28469842012797 H 0.0 **** 0.06
17958 H 69.9853878093231 63.46553981150623 41.8139558935182 H 0.0 **** 0.06
17959 H 71.32586625469406 62.2978424420001 41.91800441885323 H 0.0 **** 0.06
17960 H 71.36035518970657 63.78245142710102 42.90062762578617 H 0.0 **** 0.06
17961 C 48.90640829624046 138.8880754386672 147.47172663000887 C 0.0 **** -0.24
17962 H 49.21377301667654 139.71723321432623 146.83395536498824 H 0.0 **** 0.06
17963 H 48.24997282236576 139.25882852587955 148.25911184708642 H 0.0 **** 0.06
17964 H 49.787820558838945 138.42825360889887 147.91857353993262 H 0.0 **** 0.06
17965 H 48.37494158265676 138.14794654918825 146.87320827074515 H 0.0 **** 0.06
17966 C 129.05662191520258 154.48481114280457 17.271779531065846 C 0.0 **** -0.24
17967 H 128.16577090290528 155.11115540712984 17.213924301539407 H 0.0 **** 0.06
17968 H 128.8521793478804 153.6223123336287 17.906131875425842 H 0.0 **** 0.06
17969 H 129.87817366970495 155.06243199648407 17.69646382034327 H 0.0 **** 0.06
17970 H 129.32792348135078 154.1469569196198 16.272329784376268 H 0.0 **** 0.06
17971 C 33.6312811679187 16.346684729999993 65.75340975344723 C 0.0 **** -0.24
17972 H 33.57789334046453 15.765648561555281 64.83233017543026 H 0.0 **** 0.06
17973 H 33.94754081866654 17.364306199344014 65.52368983339117 H 0.0 **** 0.06
17974 H 34.34944463256491 15.886028737271204 66.43151678110019 H 0.0 **** 0.06
17975 H 32.648919599020445 16.3692170850357 66.22516699682038 H 0.0 **** 0.06
17976 C 70.6240978785924 69.40781707353196 108.95428009559248 C 0.0 **** -0.24
17977 H 70.8796531808062 69.2188169049557 109.99747150428891 H 0.0 **** 0.06
17978 H 69.66253807028782 68.94709969081659 108.72768996517493 H 0.0 **** 0.06
17979 H 71.39285585618134 68.98155751315319 108.30917867929429 H 0.0 **** 0.06
17980 H 70.56187386213294 70.48314220990815 108.784595371705 H 0.0 **** 0.06
17981 C 3.391728443443725 53.6294751029352 105.57469823391074 C 0.0 **** -0.24
17982 H 2.3671087397760857 53.63855666981493 105.94622729020651 H 0.0 **** 0.06
17983 H 3.945243389458426 54.45727874482969 106.01663845170592 H 0.0 **** 0.06
17984 H 3.3859366807350284 53.73354204333384 104.48963261967722 H 0.0 **** 0.06
17985 H 3.8681514237073316 52.68657999527113 105.84632273071725 H 0.0 **** 0.06
17986 C 147.4053838836966 3.652924186242899 133.9763797629093 C 0.0 **** -0.24
17987 H 146.3574424838019 3.913571864450212 133.8280744478937 H 0.0 **** 0.06
17988 H 147.927386458766 3.6876330516593896 133.02026185456032 H 0.0 **** 0.06
17989 H 147.47521197126636 2.647915706945099 134.39307493234998 H 0.0 **** 0.06
17990 H 147.86189080151138 4.364641701445031 134.66536344546392 H 0.0 **** 0.06
17991 C 58.011622555620335 140.02774284859652 26.8250032463921 C 0.0 **** -0.24
17992 H 58.57352700432028 140.410588039067 25.973321502138305 H 0.0 **** 0.06
17993 H 58.702426229113215 139.61706891222357 27.56134763421946 H 0.0 **** 0.06
17994 H 57.3309658090609 139.24557531687037 26.488992535277816 H 0.0 **** 0.06
17995 H 57.43791195115453 140.83821925314288 27.276222751243296 H 0.0 **** 0.06
17996 C 53.748900084150165 24.058420211352164 124.07138966244622 C 0.0 **** -0.24
17997 H 52.794365146878306 24.081400497970364 124.59684166375717 H 0.0 **** 0.06
17998 H 54.55753053579551 23.927542823176125 124.79111029243904 H 0.0 **** 0.06
17999 H 53.889551202446924 24.996394622348753 123.53389349076332 H 0.0 **** 0.06
18000 H 53.75427625380762 23.2297443485634 123.36385786531565 H 0.0 **** 0.06
18001 C 28.2868806244893 68.53083810184957 53.51075478655872 C 0.0 **** -0.24
18002 H 28.995948664061473 68.67753433190099 52.69624783404976 H 0.0 **** 0.06
18003 H 28.608257361928736 67.68995120177338 54.125600359915836 H 0.0 **** 0.06
18004 H 27.298813529825452 68.3227116275 53.09904654879199 H 0.0 **** 0.06
18005 H 28.243370462100472 69.43261250592332 54.120931502616884 H 0.0 **** 0.06
18006 C 101.76930730069395 8.799222627575467 0.8446367698808359 C 0.0 **** -0.24
18007 H 102.57077324034782 9.27032881747823 1.4126729717743984 H 0.0 **** 0.06
18008 H 100.81104028887836 9.21567486229526 1.1551085498079559 H 0.0 **** 0.06
18009 H 101.77607963463737 7.724968414468535 1.0302166428904442 H 0.0 **** 0.06
18010 H 101.91911140183382 8.984690912784835 -0.21824989202872302 H 0.0 **** 0.06
18011 C 20.834098411064375 131.01544144078503 148.36342933239538 C 0.0 **** -0.24
18012 H 21.587247614632076 130.24282018661756 148.2051019337309 H 0.0 **** 0.06
18013 H 20.329262064290717 130.84088697801886 149.31445452080231 H 0.0 **** 0.06
18014 H 20.10506595821976 130.98171265362865 147.55343863745253 H 0.0 **** 0.06
18015 H 21.31414630043475 131.9932576124248 148.3806158674284 H 0.0 **** 0.06
18016 C 34.764011640180556 139.87015765581006 104.34305741245632 C 0.0 **** -0.24
18017 H 35.723631075900286 140.00252218543363 103.84424382130953 H 0.0 **** 0.06
18018 H 34.86229413015174 139.11680708509084 105.12516888123349 H 0.0 **** 0.06
18019 H 34.01804152432287 139.5449337017061 103.61683508543157 H 0.0 **** 0.06
18020 H 34.45132388015274 140.81606733343332 104.78540015845832 H 0.0 **** 0.06
18021 C 84.7356285887675 152.9740792454629 11.822467437529127 C 0.0 **** -0.24
18022 H 85.34420507882533 153.85050905806867 11.598685603062378 H 0.0 **** 0.06
18023 H 84.93820367044981 152.1947479100885 11.087596107443566 H 0.0 **** 0.06
18024 H 83.6810794618292 153.24429259449218 11.784471471626603 H 0.0 **** 0.06
18025 H 84.98140821814349 152.60728465005312 12.818874956850692 H 0.0 **** 0.06
18026 C 21.97943924064498 22.888150641789508 122.09885503896379 C 0.0 **** -0.24
18027 H 21.849967330630733 23.93116064691432 121.80697139477385 H 0.0 **** 0.06
18028 H 22.14335156240074 22.830863286600845 123.17521407924608 H 0.0 **** 0.06
18029 H 22.83905755922285 22.469553354072616 121.57671667266226 H 0.0 **** 0.06
18030 H 21.084597194522217 22.324388258749934 121.83624025109643 H 0.0 **** 0.06
18031 C 35.318086768731504 10.200384039873938 61.04744070294156 C 0.0 **** -0.24
18032 H 34.46669625488762 9.76426102912103 61.57022055752087 H 0.0 **** 0.06
18033 H 34.96013214831133 10.900041740356386 60.290800425271215 H 0.0 **** 0.06
18034 H 35.89380936578537 9.409737231982547 60.56708463840231 H 0.0 **** 0.06
18035 H 35.95036598390632 10.728987506125435 61.76067153460522 H 0.0 **** 0.06
18036 C 70.23559340501677 82.97632899643045 117.97650282756564 C 0.0 **** -0.24
18037 H 69.68040644297014 83.91324189857252 117.92144344067435 H 0.0 **** 0.06
18038 H 69.65065292227598 82.23903665898821 118.52592022991098 H 0.0 **** 0.06
18039 H 71.18209905817201 83.14562753644654 118.49084409400984 H 0.0 **** 0.06
18040 H 70.43115128344428 82.61000951716987 116.96850628843151 H 0.0 **** 0.06
18041 C 138.2265366557886 23.1494481827214 73.25536051690979 C 0.0 **** -0.24
18042 H 138.8087999082225 22.236172638378335 73.37722575560197 H 0.0 **** 0.06
18043 H 138.01535003863756 23.578421733888227 74.23530632432966 H 0.0 **** 0.06
18044 H 137.2886538162802 22.91855909449668 72.75057654995189 H 0.0 **** 0.06
18045 H 138.79274112462247 23.864761781185926 72.65960739397437 H 0.0 **** 0.06
18046 C 154.63095937952113 16.441117118620838 56.03514711704236 C 0.0 **** -0.24
18047 H 153.78601485337805 16.63629167110969 55.37431618827844 H 0.0 **** 0.06
18048 H 154.6565362093763 15.380280212163143 56.286305971138916 H 0.0 **** 0.06
18049 H 154.52375224514117 17.028470527407933 56.94653530511732 H 0.0 **** 0.06
18050 H 155.5571646248287 16.717642851997027 55.53065901981455 H 0.0 **** 0.06
18051 C 101.8296252370466 60.44477343606631 118.82996693781541 C 0.0 **** -0.24
18052 H 101.5759602767939 60.50181634035992 119.88860476885375 H 0.0 **** 0.06
18053 H 102.79514998514966 59.95219273437431 118.71493620653206 H 0.0 **** 0.06
18054 H 101.88288518340482 61.45089872169528 118.41548520364992 H 0.0 **** 0.06
18055 H 101.06462533540818 59.87501276498979 118.30372294085365 H 0.0 **** 0.06
18056 C 149.9438157718525 3.992691262913894 41.81788974370228 C 0.0 **** -0.24
18057 H 149.68701711666387 3.2038787961654123 41.109960908242286 H 0.0 **** 0.06
18058 H 150.80400234372163 4.548756765796867 41.44331783581559 H 0.0 **** 0.06
18059 H 150.18956133477153 3.5498944093958755 42.782620220280904 H 0.0 **** 0.06
18060 H 149.09634546170292 4.667577207035265 41.93269328966885 H 0.0 **** 0.06
18061 C 137.99404110144687 19.89966424851015 33.007050855826094 C 0.0 **** -0.24
18062 H 137.71989521597135 20.910895570450116 33.30654556860679 H 0.0 **** 0.06
18063 H 138.42892130359067 19.37471713007644 33.85815990756686 H 0.0 **** 0.06
18064 H 138.7232516952624 19.946194932901662 32.19735665187619 H 0.0 **** 0.06
18065 H 137.10598525711822 19.367493735866134 32.666269085374694 H 0.0 **** 0.06
18066 C 43.248705492541816 50.717859114919975 37.36135421358898 C 0.0 **** -0.24
18067 H 43.40679844269957 50.29783975392576 38.354927173334545 H 0.0 **** 0.06
18068 H 42.56737332398477 50.07618622587637 36.80074802392613 H 0.0 **** 0.06
18069 H 44.202453854098906 50.78019674533493 36.837755201210996 H 0.0 **** 0.06
18070 H 42.817657324196446 51.71443750718157 37.452033941962156 H 0.0 **** 0.06
18071 C 82.79263242625831 38.77646291527357 41.96725950465658 C 0.0 **** -0.24
18072 H 82.79805920892721 38.1388482673014 41.08395721920972 H 0.0 **** 0.06
18073 H 81.7916829300136 38.79340005650688 42.39686287311184 H 0.0 **** 0.06
18074 H 83.08549005764523 39.78775740712743 41.68585641059997 H 0.0 **** 0.06
18075 H 83.49716950436733 38.38565683504791 42.70115320067397 H 0.0 **** 0.06
18076 C 81.36216546815324 119.57983873478202 103.36430785470696 C 0.0 **** -0.24
18077 H 82.14485161191689 118.82172976127538 103.38127917902045 H 0.0 **** 0.06
18078 H 81.76756281462372 120.52846365601818 103.71679844716479 H 0.0 **** 0.06
18079 H 80.54263419243593 119.27024931480648 104.01324448486977 H 0.0 **** 0.06
18080 H 80.99378309470585 119.69837910406014 102.34508046193895 H 0.0 **** 0.06
18081 C 130.49140780804447 11.777184385509116 6.890032186539145 C 0.0 **** -0.24
18082 H 130.26358678975498 11.857093338563004 7.9528007354597605 H 0.0 **** 0.06
18083 H 129.75863713867017 12.346793485600926 6.318543365800963 H 0.0 **** 0.06
18084 H 130.45457812307666 10.730110890242798 6.589270606583057 H 0.0 **** 0.06
18085 H 131.48872995542416 12.174916007059068 6.701955205295491 H 0.0 **** 0.06
18086 C 66.75460425209837 140.10671775364568 106.82145103885773 C 0.0 **** -0.24
18087 H 67.79564572246693 140.3816284904193 106.65175542658505 H 0.0 **** 0.06
18088 H 66.16881399610295 141.00516669163875 107.01527604363525 H 0.0 **** 0.06
18089 H 66.6907297185283 139.43791099058274 107.68031682676542 H 0.0 **** 0.06
18090 H 66.36454855190473 139.6010524966381 105.93832248417948 H 0.0 **** 0.06
18091 C 72.62933325138277 50.4955340581721 109.57364401742063 C 0.0 **** -0.24
18092 H 72.43338224630028 51.08057551335878 110.47232948040255 H 0.0 **** 0.06
18093 H 73.31779424948645 49.6838062694834 109.81263431900186 H 0.0 **** 0.06
18094 H 73.07442621647262 51.13692435052678 108.8124550624155 H 0.0 **** 0.06
18095 H 71.69387833049765 50.08070243358435 109.19924764063069 H 0.0 **** 0.06
18096 C 117.92988551562243 72.72847035745104 151.6536750995974 C 0.0 **** -0.24
18097 H 118.9013457042928 72.8666788939092 152.12761743653346 H 0.0 **** 0.06
18098 H 117.1399929900351 72.93274765404782 152.37717939860136 H 0.0 **** 0.06
18099 H 117.84149951222213 71.70279008281136 151.29784551318286 H 0.0 **** 0.06
18100 H 117.83715928440822 73.41481998185195 150.810702406879 H 0.0 **** 0.06
18101 C 158.3847101810842 19.593415999120623 18.574953266840694 C 0.0 **** -0.24
18102 H 158.90678906426993 19.357935381419964 19.502136291794116 H 0.0 **** 0.06
18103 H 158.60233097033395 18.828025644483148 17.83015017386377 H 0.0 **** 0.06
18104 H 158.71834768823493 20.564554626415145 18.207122211533175 H 0.0 **** 0.06
18105 H 157.31045910050034 19.625151419333974 18.760013716738605 H 0.0 **** 0.06
18106 C 23.59612966132306 145.97474239017868 79.28826382345075 C 0.0 **** -0.24
18107 H 23.308886958009168 147.02613137661692 79.28034668339586 H 0.0 **** 0.06
18108 H 24.5573552858163 145.86536095816032 79.79165819564302 H 0.0 **** 0.06
18109 H 23.67844495235221 145.61298662835287 78.26396172963352 H 0.0 **** 0.06
18110 H 22.84032726382594 145.39596311898794 79.81869678941486 H 0.0 **** 0.06
18111 C 124.52192429901433 145.05664047490413 21.75716874462463 C 0.0 **** -0.24
18112 H 123.62780272428273 144.59257566780968 22.17352354776071 H 0.0 **** 0.06
18113 H 124.78375708100623 144.56344520863382 20.820904418612706 H 0.0 **** 0.06
18114 H 125.34592389523814 144.95574715237112 22.463573062703134 H 0.0 **** 0.06
18115 H 124.32962662197659 146.11336156766862 21.571451238111976 H 0.0 **** 0.06
18116 C 150.51110437551566 17.886623969862598 133.69589492982746 C 0.0 **** -0.24
18117 H 151.4354645470358 18.2059843508043 133.21680515573027 H 0.0 **** 0.06
18118 H 150.52960486171915 18.174553176775248 134.74752290200047 H 0.0 **** 0.06
18119 H 150.41661297823606 16.802941891179103 133.61770654498736 H 0.0 **** 0.06
18120 H 149.66271407910946 18.36136946368015 133.20335816358843 H 0.0 **** 0.06
18121 C 103.24254318470088 103.17937635628064 51.56842731305103 C 0.0 **** -0.24
18122 H 103.37020172898647 104.21989550372922 51.26948239656089 H 0.0 **** 0.06
18123 H 102.30957459034144 103.07137229653767 52.12120897670033 H 0.0 **** 0.06
18124 H 104.0781845281212 102.8786027567541 52.20043336178691 H 0.0 **** 0.06
18125 H 103.21376456598196 102.54761224034434 50.6800176199814 H 0.0 **** 0.06
18126 C 75.37301761390621 70.59713686360422 66.9866017944114 C 0.0 **** -0.24
18127 H 75.93328517013546 69.75134639651799 67.38507714543107 H 0.0 **** 0.06
18128 H 74.5574219033788 70.2316447258277 66.36339158748027 H 0.0 **** 0.06
18129 H 76.03643769058479 71.22223793435829 66.38802987625024 H 0.0 **** 0.06
18130 H 74.96769886380149 71.18386125593581 67.81091608627477 H 0.0 **** 0.06
18131 C 143.8168059320103 85.10534253426002 152.04130176049796 C 0.0 **** -0.24
18132 H 143.6663034400362 86.18367474720999 151.98866624070735 H 0.0 **** 0.06
18133 H 144.85286857942862 84.89594007966977 152.30746272492902 H 0.0 **** 0.06
18134 H 143.592765207676 84.66002879195074 151.07196524465317 H 0.0 **** 0.06
18135 H 143.15404592946942 84.68349317846041 152.79769596546276 H 0.0 **** 0.06
18136 C 119.23203967647737 76.925814787315 152.97765920361883 C 0.0 **** -0.24
18137 H 119.35802033766387 77.94426163421933 152.61196437074847 H 0.0 **** 0.06
18138 H 118.30388139817316 76.85452643081796 153.54509294405926 H 0.0 **** 0.06
18139 H 120.07247818873284 76.66355559723586 153.62075802811717 H 0.0 **** 0.06
18140 H 119.19498999161019 76.23850223067274 152.1315140178175 H 0.0 **** 0.06
18141 C 67.13998225056574 24.215728801443674 141.3419868548591 C 0.0 **** -0.24
18142 H 67.22270541525674 25.17861835054171 141.8469615841587 H 0.0 **** 0.06
18143 H 66.84202552266123 23.452806549814397 142.06130965218392 H 0.0 **** 0.06
18144 H 68.10379415326312 23.949924637415222 140.90816821890058 H 0.0 **** 0.06
18145 H 66.39208953129682 24.283606307970388 140.55211283140642 H 0.0 **** 0.06
18146 C 14.443849149522578 41.08104187070545 10.780644384814252 C 0.0 **** -0.24
18147 H 13.905880892568746 41.156428809283156 11.72592785370557 H 0.0 **** 0.06
18148 H 15.395814898827751 41.60600570506594 10.861539679790639 H 0.0 **** 0.06
18149 H 13.84634895699486 41.5304218657829 9.98765006805985 H 0.0 **** 0.06
18150 H 14.625500956539554 40.03135336840019 10.549063867002246 H 0.0 **** 0.06
18151 C 68.27399105430783 56.64590921003614 58.84503299842879 C 0.0 **** -0.24
18152 H 67.99789504377338 55.78608257649341 59.45538618135507 H 0.0 **** 0.06
18153 H 68.56880246980302 57.47192834997139 59.49339131800224 H 0.0 **** 0.06
18154 H 67.4221794988992 56.9469552309817 58.23628166689272 H 0.0 **** 0.06
18155 H 69.10825274464491 56.3775115035227 58.19561863965447 H 0.0 **** 0.06
18156 C 48.05365248451915 161.09524172089758 54.86493395319583 C 0.0 **** -0.24
18157 H 48.36739529036534 162.10123824033303 54.58612700667426 H 0.0 **** 0.06
18158 H 48.925499336831095 160.51315491548064 55.163094757333965 H 0.0 **** 0.06
18159 H 47.570468899997636 160.6162277067682 54.01286818166484 H 0.0 **** 0.06
18160 H 47.35147726363019 161.15126488886233 55.69732583733577 H 0.0 **** 0.06
18161 C 100.43903176366231 142.33516335185575 73.84914096104909 C 0.0 **** -0.24
18162 H 100.01392449552415 142.71510177720847 74.77891916219501 H 0.0 **** 0.06
18163 H 101.4560663488904 142.71245612952555 73.73459088271197 H 0.0 **** 0.06
18164 H 99.8307783771954 142.66851337111052 73.00917465563664 H 0.0 **** 0.06
18165 H 100.45558199957841 141.24559333532682 73.87651114930209 H 0.0 **** 0.06
18166 C 6.296325147793567 21.746217221270797 47.55453779553832 C 0.0 **** -0.24
18167 H 6.7401160375156906 21.76743546941725 46.55899357234833 H 0.0 **** 0.06
18168 H 6.299495953645078 20.723297563700015 47.931592419450396 H 0.0 **** 0.06
18169 H 5.271381826371339 22.112043296895223 47.50249652063671 H 0.0 **** 0.06
18170 H 6.87592099428656 22.382628027017773 48.22361687344893 H 0.0 **** 0.06
18171 C 29.716441753447754 135.6370634465304 99.29670711090773 C 0.0 **** -0.24
18172 H 29.358997983961103 136.49408278782553 98.7263969864218 H 0.0 **** 0.06
18173 H 29.234073046698256 135.62450997464012 100.27416488584674 H 0.0 **** 0.06
18174 H 30.79709585748182 135.71177769944345 99.42544482911819 H 0.0 **** 0.06
18175 H 29.47830366625172 134.71913193633821 98.76045827615908 H 0.0 **** 0.06
18176 C 46.75656410984482 41.16436283857057 68.9269974663682 C 0.0 **** -0.24
18177 H 47.30651540768645 41.16038783376095 67.98647867701547 H 0.0 **** 0.06
18178 H 45.68693312510325 41.104939801195016 68.72381198490757 H 0.0 **** 0.06
18179 H 46.972473044166236 42.084644919424264 69.47025532100923 H 0.0 **** 0.06
18180 H 47.06075327469877 40.3073486206404 69.52878851813693 H 0.0 **** 0.06
18181 C 58.807020403793274 47.673958865390816 21.565749813237666 C 0.0 **** -0.24
18182 H 58.773966411648644 47.695369096957535 22.654791077464246 H 0.0 **** 0.06
18183 H 58.12149623503177 46.912248544274206 21.195463665543528 H 0.0 **** 0.06
18184 H 59.82105303402011 47.44139933486616 21.238403226654626 H 0.0 **** 0.06
18185 H 58.51362545164932 48.648916635970636 21.17493829675371 H 0.0 **** 0.06
18186 C 11.808863600625102 76.75199796075259 93.67621460882688 C 0.0 **** -0.24
18187 H 12.494675496997274 77.00377484789612 94.48469483474517 H 0.0 **** 0.06
18188 H 10.785181097085513 76.76390261095116 94.05150688371991 H 0.0 **** 0.06
18189 H 12.045822792785685 75.75812426960795 93.29592091053367 H 0.0 **** 0.06
18190 H 11.91097385681482 77.4818941943447 92.87342520561782 H 0.0 **** 0.06
18191 C 49.5791079616489 158.9081085605451 104.97955780042304 C 0.0 **** -0.24
18192 H 49.74168738719311 159.93253987613036 104.64517889284454 H 0.0 **** 0.06
18193 H 48.55917799112274 158.80310374464767 105.34815198224933 H 0.0 **** 0.06
18194 H 50.281317715520345 158.67106812138815 105.77882818534476 H 0.0 **** 0.06
18195 H 49.73619975840751 158.22468603504643 104.14430591398295 H 0.0 **** 0.06
18196 C 26.74620021345428 131.6618382390227 157.869521665939 C 0.0 **** -0.24
18197 H 27.498900750458247 131.40596712983185 157.12314792366703 H 0.0 **** 0.06
18198 H 25.778971349667295 131.78312579470645 157.38171277636357 H 0.0 **** 0.06
18199 H 27.025350217124398 132.5934411492326 158.36167727826438 H 0.0 **** 0.06
18200 H 26.683137298228743 130.86405681394086 158.6101381306878 H 0.0 **** 0.06
18201 C 81.18137493335882 79.4779796815427 104.63269002035474 C 0.0 **** -0.24
18202 H 82.24819648836258 79.37946477040686 104.83600374244534 H 0.0 **** 0.06
18203 H 80.6702419243377 79.81290919022389 105.5349328415173 H 0.0 **** 0.06
18204 H 80.78033858927698 78.5129169710367 104.32393177595023 H 0.0 **** 0.06
18205 H 81.02967931541593 80.20640509879851 103.83634920324695 H 0.0 **** 0.06
18206 C 64.55024585844257 151.59891379663753 150.6106604867869 C 0.0 **** -0.24
18207 H 64.60153652079589 152.6882144781771 150.6233957641285 H 0.0 **** 0.06
18208 H 65.28872778243942 151.19202720637162 151.30249041525107 H 0.0 **** 0.06
18209 H 64.7584300244271 151.23826422532414 149.6032225964803 H 0.0 **** 0.06
18210 H 63.55316840543702 151.27884645283518 150.9123727503818 H 0.0 **** 0.06
18211 C 56.40930987908388 100.19366842483257 121.93001359894959 C 0.0 **** -0.24
18212 H 56.32367456881849 100.9509422490122 122.70902758560595 H 0.0 **** 0.06
18213 H 55.61497301000658 99.45657078423343 122.04915584134693 H 0.0 **** 0.06
18214 H 57.37888536497037 99.70065416537983 122.00874231254511 H 0.0 **** 0.06
18215 H 56.321886602866954 100.66758103065266 120.95168190317554 H 0.0 **** 0.06
18216 C 68.52684838371464 121.7413836952021 114.28773997050442 C 0.0 **** -0.24
18217 H 69.14309185064764 122.09446027203333 113.46051702908264 H 0.0 **** 0.06
18218 H 69.06351199052087 121.88237618892725 115.22582266367274 H 0.0 **** 0.06
18219 H 68.30803063859858 120.6828702294936 114.14979479708066 H 0.0 **** 0.06
18220 H 67.59414993297632 122.30541222321594 114.31219998081286 H 0.0 **** 0.06
18221 C 25.173025911222823 136.59863829923557 161.5624949499144 C 0.0 **** -0.24
18222 H 24.92231378759231 137.62064034140747 161.2768550754238 H 0.0 **** 0.06
18223 H 24.276395481376518 135.9802959422762 161.5199689841803 H 0.0 **** 0.06
18224 H 25.57112498440045 136.59302207014434 162.57745083976505 H 0.0 **** 0.06
18225 H 25.921198451652437 136.2027948548217 160.87581986707903 H 0.0 **** 0.06
18226 C 130.94073203571827 88.8375445889254 156.75444472416808 C 0.0 **** -0.24
18227 H 131.65370934264894 88.17404588823251 156.26464609107015 H 0.0 **** 0.06
18228 H 130.08437767006475 88.99749942947588 156.10027160628835 H 0.0 **** 0.06
18229 H 131.4210883854222 89.79275758466342 156.96496490750025 H 0.0 **** 0.06
18230 H 130.60614881031887 88.38545920862686 157.6881891930877 H 0.0 **** 0.06
18231 C 146.5555394482206 114.65949812933445 89.50057993560773 C 0.0 **** -0.24
18232 H 146.08384579228928 113.71158765806939 89.24148788438268 H 0.0 **** 0.06
18233 H 147.00355588871912 115.09844415357975 88.6089698635715 H 0.0 **** 0.06
18234 H 147.32975577728095 114.48726002491463 90.24940769881437 H 0.0 **** 0.06
18235 H 145.80588456508332 115.33992354806304 89.9043554406042 H 0.0 **** 0.06
18236 C 100.24680341994556 51.677095889529596 132.65972244225006 C 0.0 **** -0.24
18237 H 99.81299259418395 52.025651006439034 133.59768160687767 H 0.0 **** 0.06
18238 H 101.23599983020654 52.116727768690055 132.53160089200045 H 0.0 **** 0.06
18239 H 99.60602793490807 51.97404287553468 131.83014719738628 H 0.0 **** 0.06
18240 H 100.3323637318855 50.59057303023792 132.68211379684575 H 0.0 **** 0.06
18241 C 20.67321965200341 46.060711719222766 56.124046262593225 C 0.0 **** -0.24
18242 H 20.37335996743097 45.930902350280405 57.16357285266713 H 0.0 **** 0.06
18243 H 21.40123753220344 46.86849292628024 56.05419411627889 H 0.0 **** 0.06
18244 H 19.798423688778676 46.307208742371756 55.5218958564206 H 0.0 **** 0.06
18245 H 21.11886215815082 45.13618599561978 55.75660129144097 H 0.0 **** 0.06
18246 C 49.69774448523495 147.0890707202687 74.15506528356387 C 0.0 **** -0.24
18247 H 49.30271886939494 146.21405480417218 73.63878070146535 H 0.0 **** 0.06
18248 H 49.61348672255946 146.94399910340064 75.23253674078428 H 0.0 **** 0.06
18249 H 49.128539195877295 147.9711415811579 73.86132526649693 H 0.0 **** 0.06
18250 H 50.74457189584615 147.22661584271532 73.88748442626968 H 0.0 **** 0.06
18251 C 29.869522920728038 20.16732709714335 34.62861635229882 C 0.0 **** -0.24
18252 H 30.268924098508172 19.651990463314966 35.50196605362271 H 0.0 **** 0.06
18253 H 28.779679776978917 20.144951776419923 34.661512557814945 H 0.0 **** 0.06
18254 H 30.217296075228155 19.669690553075682 33.72305322642529 H 0.0 **** 0.06
18255 H 30.213009232310533 21.20258254410458 34.62908383013496 H 0.0 **** 0.06
18256 C 147.35336670674823 108.81253377531263 19.251835278591216 C 0.0 **** -0.24
18257 H 146.5263998700577 108.71274677255869 18.54885216469131 H 0.0 **** 0.06
18258 H 146.9825845916057 108.67874330548173 20.268263633844924 H 0.0 **** 0.06
18259 H 147.7962693388818 109.80381341126701 19.153109339450396 H 0.0 **** 0.06
18260 H 148.10564534689266 108.05499287723973 19.035572834509537 H 0.0 **** 0.06
18261 C 101.91120016457225 1.809084500559294 55.68798515526743 C 0.0 **** -0.24
18262 H 101.33406356461248 0.9407205467045401 55.371532599781744 H 0.0 **** 0.06
18263 H 102.91541790070809 1.7515040777037711 55.26884786343602 H 0.0 **** 0.06
18264 H 101.97154445449183 1.8289889857936998 56.77640338914895 H 0.0 **** 0.06
18265 H 101.42245542178532 2.717616745520786 55.335375444287266 H 0.0 **** 0.06
18266 C 48.32000640202325 111.45818140491917 40.662103442026336 C 0.0 **** -0.24
18267 H 49.07865344818275 111.33270301847787 39.88939023646006 H 0.0 **** 0.06
18268 H 48.40255636476412 112.45662525806503 41.09168723599525 H 0.0 **** 0.06
18269 H 48.46979273258334 110.7126792287651 41.44278289185617 H 0.0 **** 0.06
18270 H 47.3300402866403 111.331879975107 40.22328239808121 H 0.0 **** 0.06
18271 C 143.15315779371275 123.48781989135489 113.05161022026255 C 0.0 **** -0.24
18272 H 144.1894293790706 123.15399840727554 112.98930206253937 H 0.0 **** 0.06
18273 H 142.93360095180572 123.80018166726785 114.07281430664503 H 0.0 **** 0.06
18274 H 142.49112368413998 122.66804926761483 112.77129104154758 H 0.0 **** 0.06
18275 H 143.00125511221736 124.32680570481978 112.37352895983958 H 0.0 **** 0.06
18276 C 56.08314894641853 2.0486256596248538 95.77796519592476 C 0.0 **** -0.24
18277 H 55.310101731256964 2.461693795764482 96.42513174500303 H 0.0 **** 0.06
18278 H 56.68972786223907 2.8583359494946876 95.3729761767457 H 0.0 **** 0.06
18279 H 55.616721093882234 1.4990769241639086 94.96004031217811 H 0.0 **** 0.06
18280 H 56.71606889648342 1.3729467172072205 96.35374047841727 H 0.0 **** 0.06
18281 C 50.588752117816355 125.17684050647637 34.393066506906365 C 0.0 **** -0.24
18282 H 50.57668920817049 125.94370167653602 33.61876664399644 H 0.0 **** 0.06
18283 H 51.576781576934934 124.71843957277889 34.43457826955978 H 0.0 **** 0.06
18284 H 49.84397259049747 124.41489433484747 34.16183856325142 H 0.0 **** 0.06
18285 H 50.35667372612137 125.63052361878385 35.35667436980803 H 0.0 **** 0.06
18286 C 60.603941676131655 124.29084076414594 139.9675728609245 C 0.0 **** -0.24
18287 H 60.69515400096198 125.11653590063702 140.67368455669046 H 0.0 **** 0.06
18288 H 59.549412623177915 124.06112229105955 139.81377505150766 H 0.0 **** 0.06
18289 H 61.11277777701477 123.41384074221415 140.3660871044514 H 0.0 **** 0.06
18290 H 61.05712840305698 124.57389740879418 139.01718262442026 H 0.0 **** 0.06
18291 C 8.359759330604966 150.0886550724157 48.60761778470214 C 0.0 **** -0.24
18292 H 8.714044177570322 150.22671874226072 49.6287752178344 H 0.0 **** 0.06
18293 H 8.350981910862451 149.02468434145783 48.36793436758978 H 0.0 **** 0.06
18294 H 9.022947013622051 150.61134248559802 47.918895926010364 H 0.0 **** 0.06
18295 H 7.350439457832827 150.49018847592342 48.51619468810436 H 0.0 **** 0.06
18296 C 10.72628008691646 41.501461414679085 9.942676229956362 C 0.0 **** -0.24
18297 H 11.472819985602484 41.42538285399402 9.151376588056763 H 0.0 **** 0.06
18298 H 11.173860559148352 41.97177566152931 10.818756200217194 H 0.0 **** 0.06
18299 H 10.372195846539398 40.50410080163341 10.205017685043401 H 0.0 **** 0.06
18300 H 9.887781801479832 42.10450484169324 9.59427831527347 H 0.0 **** 0.06
18301 C 143.0945865504204 146.27538227978167 97.91008667751439 C 0.0 **** -0.24
18302 H 144.00702610075223 145.68502402513514 97.99453226364034 H 0.0 **** 0.06
18303 H 142.28663576890784 145.77351878561456 98.44248917923039 H 0.0 **** 0.06
18304 H 142.82646504771174 146.3823627775619 96.85903725580471 H 0.0 **** 0.06
18305 H 143.25845230909158 147.26146470262776 98.34540075115058 H 0.0 **** 0.06
18306 C 126.40017529151737 129.79908919957737 5.775299877289569 C 0.0 **** -0.24
18307 H 127.41091290730628 129.5039921574442 6.057301768327534 H 0.0 **** 0.06
18308 H 125.78613692115641 128.90882597150954 5.6418528848547 H 0.0 **** 0.06
18309 H 126.43324629427309 130.3624172690451 4.8427862590680775 H 0.0 **** 0.06
18310 H 125.97194641477674 130.42166754765964 6.561082350791764 H 0.0 **** 0.06
18311 C 51.743122329234566 117.98090743839842 125.49201215427044 C 0.0 **** -0.24
18312 H 51.605840221114704 118.98307727091563 125.08596769327733 H 0.0 **** 0.06
18313 H 50.95603159681232 117.32600904812065 125.11711729055935 H 0.0 **** 0.06
18314 H 51.694471938819945 118.02038856420057 126.58080564947454 H 0.0 **** 0.06
18315 H 52.71461102151295 117.5942182564145 125.18543911373004 H 0.0 **** 0.06
18316 C 121.42455145344422 126.30094133032443 83.78981638211371 C 0.0 **** -0.24
18317 H 122.00572569033503 126.89500356160104 83.0840632754737 H 0.0 **** 0.06
18318 H 121.23905722843344 126.88533527333783 84.69109739915484 H 0.0 **** 0.06
18319 H 121.97984921647878 125.39934280823132 84.04852733508686 H 0.0 **** 0.06
18320 H 120.47427404521417 126.02342285010238 83.33332519240692 H 0.0 **** 0.06
18321 C 16.380939116299437 76.556468773245 97.59033688853879 C 0.0 **** -0.24
18322 H 16.305468238506542 77.61169782435974 97.853811114812 H 0.0 **** 0.06
18323 H 17.124681315486555 76.07575717696659 98.225707452162 H 0.0 **** 0.06
18324 H 16.68029078057416 76.46442002540363 96.54616617772854 H 0.0 **** 0.06
18325 H 15.413373158627628 76.07559120793888 97.73409272447606 H 0.0 **** 0.06
18326 C 158.1385247322113 118.41819026953308 58.26257176303119 C 0.0 **** -0.24
18327 H 157.5021860884121 117.8558683661997 58.94473084579988 H 0.0 **** 0.06
18328 H 158.52023670438496 119.30542401284086 58.77014853945877 H 0.0 **** 0.06
18329 H 157.55936843737635 118.7196703129859 57.389629249079974 H 0.0 **** 0.06
18330 H 158.9735913820159 117.79347464898902 57.94651493032353 H 0.0 **** 0.06
18331 C 79.86841165318668 157.6673757617995 119.20922563176916 C 0.0 **** -0.24
18332 H 80.6869553426759 157.90483293857122 118.5304545774658 H 0.0 **** 0.06
18333 H 80.19998011775436 157.8030119187303 120.23912663194963 H 0.0 **** 0.06
18334 H 79.55985522641862 156.6320397234067 119.06013132309329 H 0.0 **** 0.06
18335 H 79.0259826630587 158.32976335661473 119.00829293573858 H 0.0 **** 0.06
18336 C 156.95007675457504 40.41407041586763 161.79858338342422 C 0.0 **** -0.24
18337 H 157.73416825674596 39.99866532297415 161.16496756694673 H 0.0 **** 0.06
18338 H 156.4713711269485 39.61021075039133 162.35747461106683 H 0.0 **** 0.06
18339 H 156.20918829037728 40.91521864515619 161.17534297745874 H 0.0 **** 0.06
18340 H 157.38728715337353 41.13131863955266 162.49289735826784 H 0.0 **** 0.06
18341 C 51.473576671769536 24.90084161546588 66.4289960667618 C 0.0 **** -0.24
18342 H 52.14121421206403 25.762509469848055 66.40089790768792 H 0.0 **** 0.06
18343 H 52.00103854634426 24.047289499855367 66.85432135361484 H 0.0 **** 0.06
18344 H 51.147891808588724 24.660364040363845 65.41714046881192 H 0.0 **** 0.06
18345 H 50.60481268946745 25.135338996861606 67.043496639915 H 0.0 **** 0.06
18346 C 59.96006212915333 37.414152265210745 8.178507846335854 C 0.0 **** -0.24
18347 H 59.66526320483388 37.21162756624935 7.148389782460697 H 0.0 **** 0.06
18348 H 60.578885244464715 38.311561704575254 8.208643190203368 H 0.0 **** 0.06
18349 H 60.52719240092799 36.5680314522011 8.565810911388326 H 0.0 **** 0.06
18350 H 59.06963792443028 37.565245271915344 8.787520530080705 H 0.0 **** 0.06
18351 C 90.78934639459503 65.91401398664897 31.82116696676235 C 0.0 **** -0.24
18352 H 90.17141723597986 65.49632810158161 32.61581022118793 H 0.0 **** 0.06
18353 H 90.54624779718124 65.4259051026443 30.87728951194316 H 0.0 **** 0.06
18354 H 91.84115952765944 65.75067432524008 32.05512023697682 H 0.0 **** 0.06
18355 H 90.59692085688154 66.98391742845939 31.737758868117794 H 0.0 **** 0.06
18356 C 64.28884969346251 32.82357587499341 120.93660610567781 C 0.0 **** -0.24
18357 H 64.41534962478971 33.84535272100838 121.2966557514512 H 0.0 **** 0.06
18358 H 63.4499739403102 32.78494196005971 120.24168255020453 H 0.0 **** 0.06
18359 H 64.09199761384127 32.16285679382065 121.78162648909299 H 0.0 **** 0.06
18360 H 65.19761177771818 32.50279744043337 120.42790038647959 H 0.0 **** 0.06
18361 C 102.85320186570368 120.52423603165275 152.9764557336848 C 0.0 **** -0.24
18362 H 102.69221717625032 121.27017171528513 153.754923298178 H 0.0 **** 0.06
18363 H 102.19877459644027 120.73449122778811 152.13007545273902 H 0.0 **** 0.06
18364 H 102.62847158329578 119.53284623595954 153.37147404736896 H 0.0 **** 0.06
18365 H 103.89231302757094 120.55877880642385 152.65057750962066 H 0.0 **** 0.06
18366 C 66.07163677802254 138.26523894150617 76.93852924465594 C 0.0 **** -0.24
18367 H 66.65987026733465 138.63721831640981 77.77814201246528 H 0.0 **** 0.06
18368 H 65.01082482913878 138.33931847656535 77.17867940384264 H 0.0 **** 0.06
18369 H 66.32959637678137 137.22320491700114 76.74783626524783 H 0.0 **** 0.06
18370 H 66.28681442212654 138.86157088092983 76.05220896589836 H 0.0 **** 0.06
18371 C 151.00096412913445 120.52785882134117 139.81751060446624 C 0.0 **** -0.24
18372 H 151.7980981105137 119.84069083892501 140.1016645126536 H 0.0 **** 0.06
18373 H 150.1474959746144 119.96043796854966 139.4464478877615 H 0.0 **** 0.06
18374 H 151.35970681977903 121.19799359332848 139.03700122522906 H 0.0 **** 0.06
18375 H 150.69846173842748 121.11215633897882 140.68715743131276 H 0.0 **** 0.06
18376 C 88.80289728234737 138.3592784378203 77.56255035784926 C 0.0 **** -0.24
18377 H 88.9020997324601 137.27756481534627 77.47565185104699 H 0.0 **** 0.06
18378 H 87.87685713814142 138.5985223142474 78.08482792630463 H 0.0 **** 0.06
18379 H 88.78508700452915 138.80347173805475 76.56697716479783 H 0.0 **** 0.06
18380 H 89.64927129694968 138.75741138522724 78.12276108372791 H 0.0 **** 0.06
18381 C 98.70835482622695 8.059916972981398 140.2658353647814 C 0.0 **** -0.24
18382 H 99.05728060718039 9.047590175416929 139.9623978303621 H 0.0 **** 0.06
18383 H 99.37769337448952 7.300124231641803 139.86288407635146 H 0.0 **** 0.06
18384 H 97.70091141173307 7.898146142114257 139.88272596236166 H 0.0 **** 0.06
18385 H 98.69838570281189 7.99661172053581 141.3537810924501 H 0.0 **** 0.06
18386 C 20.349400687941653 18.412997134221882 16.17204927835016 C 0.0 **** -0.24
18387 H 20.92543557011618 18.27522968876255 15.256808975357501 H 0.0 **** 0.06
18388 H 19.339645585617177 18.736652970855403 15.920640502779904 H 0.0 **** 0.06
18389 H 20.830495822809496 19.169170857917493 16.793176202019694 H 0.0 **** 0.06
18390 H 20.305457383773216 17.470553294119583 16.71729090330824 H 0.0 **** 0.06
18391 C 72.14647822786662 35.51271636309383 152.4902677350484 C 0.0 **** -0.24
18392 H 72.51271367959589 34.488733946140826 152.40980972766397 H 0.0 **** 0.06
18393 H 71.16649089551856 35.585043910286686 152.0175326719119 H 0.0 **** 0.06
18394 H 72.8416410446049 36.18777551958868 151.99297145136774 H 0.0 **** 0.06
18395 H 72.06345900856292 35.78625299400446 153.54219091729675 H 0.0 **** 0.06
18396 C 90.67126548183708 154.36604058031486 95.82944643245324 C 0.0 **** -0.24
18397 H 90.47904686305296 154.91378294293511 94.90665762944059 H 0.0 **** 0.06
18398 H 90.74860935051272 153.30059162172614 95.60969352723401 H 0.0 **** 0.06
18399 H 89.85345046166312 154.53485284670856 96.52933773770931 H 0.0 **** 0.06
18400 H 91.60460399594531 154.71491995903347 96.27049090938469 H 0.0 **** 0.06
18401 C 58.312745739181594 158.63566919585116 68.5317687813336 C 0.0 **** -0.24
18402 H 57.94334225299656 157.80462818123414 67.93005889797254 H 0.0 **** 0.06
18403 H 57.469341312868494 159.17481375469094 68.9628789378645 H 0.0 **** 0.06
18404 H 58.89255373983194 159.31018184799532 67.90281315573633 H 0.0 **** 0.06
18405 H 58.945208659575044 158.25076649726083 69.33201963993737 H 0.0 **** 0.06
18406 C 151.3306344168975 85.05139119217206 131.22770728834553 C 0.0 **** -0.24
18407 H 151.22161436562482 84.52353784818058 130.28081009107962 H 0.0 **** 0.06
18408 H 152.00840259592167 84.49649350567049 131.8765128931136 H 0.0 **** 0.06
18409 H 150.3562379706027 85.1387711316933 131.70856295657893 H 0.0 **** 0.06
18410 H 151.7351621212129 86.04632037193056 131.0442022682182 H 0.0 **** 0.06
18411 C 27.020993139694326 91.26045134486249 3.460752537842893 C 0.0 **** -0.24
18412 H 26.02762183107393 91.70654206539834 3.501426216315622 H 0.0 **** 0.06
18413 H 27.54796761585203 91.4619064350123 4.393914706753094 H 0.0 **** 0.06
18414 H 27.578042224341857 91.68920060274259 2.6287049450403686 H 0.0 **** 0.06
18415 H 26.92883280319353 90.18318903842177 3.3203022980191577 H 0.0 **** 0.06
18416 C 4.945992468442569 153.3939921978967 52.98966250723498 C 0.0 **** -0.24
18417 H 4.387525238527644 152.70599815243048 53.62374245296279 H 0.0 **** 0.06
18418 H 5.100158823552533 152.9413801993352 52.01047613612998 H 0.0 **** 0.06
18419 H 5.911647833915424 153.6072682014402 53.448659167390375 H 0.0 **** 0.06
18420 H 4.384866798274857 154.32182922182216 52.87815781014213 H 0.0 **** 0.06
18421 C 94.30873147200526 142.66863167622606 80.22373208872438 C 0.0 **** -0.24
18422 H 93.52186915605341 143.31862558640452 80.6051602459039 H 0.0 **** 0.06
18423 H 93.86062304913492 141.7983412523236 79.74427586048074 H 0.0 **** 0.06
18424 H 94.94275426829779 142.3430261851554 81.04925135296568 H 0.0 **** 0.06
18425 H 94.91071398068004 143.2137526652362 79.4968063578321 H 0.0 **** 0.06
18426 C 128.7100701497092 75.04798173988016 82.37972905141464 C 0.0 **** -0.24
18427 H 128.1195230618023 75.16473953804966 83.28796447481521 H 0.0 **** 0.06
18428 H 129.30965349324302 74.13981789778461 82.44950108729242 H 0.0 **** 0.06
18429 H 129.36847462026873 75.90948680315529 82.2618372375169 H 0.0 **** 0.06
18430 H 128.04443648035084 74.9791590908339 81.51993832967315 H 0.0 **** 0.06
18431 C 110.06553899119865 95.32659682120172 130.53358660027675 C 0.0 **** -0.24
18432 H 110.28378101357163 94.25971484500977 130.46274022798616 H 0.0 **** 0.06
18433 H 110.07038770014458 95.7647992633041 129.53536819871613 H 0.0 **** 0.06
18434 H 110.82393678220228 95.81183650350195 131.14812390803166 H 0.0 **** 0.06
18435 H 109.08508682693633 95.4667421449431 130.987844977037 H 0.0 **** 0.06
18436 C 153.94602050174234 37.061132822430125 42.328255340061716 C 0.0 **** -0.24
18437 H 154.1873416721554 36.53605093477324 41.40363326422104 H 0.0 **** 0.06
18438 H 154.0655632170235 38.13455340707338 42.17705453888627 H 0.0 **** 0.06
18439 H 154.61561446657493 36.72813672646976 43.120236608268385 H 0.0 **** 0.06
18440 H 152.91459279696295 36.84636176208596 42.609316122447524 H 0.0 **** 0.06
18441 C 147.61547997786354 109.67999376991472 64.607223361732 C 0.0 **** -0.24
18442 H 147.03887188026772 110.59566519355457 64.74027153962133 H 0.0 **** 0.06
18443 H 148.16425856364634 109.73177197852817 63.66562046888896 H 0.0 **** 0.06
18444 H 146.94101696957233 108.82483443740833 64.58914091782736 H 0.0 **** 0.06
18445 H 148.3189161738946 109.57091080574847 65.43230957688738 H 0.0 **** 0.06
18446 C 107.4462282586421 77.64649105752304 120.87569715340737 C 0.0 **** -0.24
18447 H 107.697912949201 76.63369416630945 120.56304704243666 H 0.0 **** 0.06
18448 H 107.23104149304234 77.65440695983642 121.94436635384193 H 0.0 **** 0.06
18449 H 106.56975857829596 77.98977656960773 120.32554369212119 H 0.0 **** 0.06
18450 H 108.28706114616784 78.30954933122018 120.6694868989648 H 0.0 **** 0.06
18451 C 81.99442335896408 13.012097875052852 105.01497020292422 C 0.0 **** -0.24
18452 H 81.99961810294747 12.077502014065594 104.45440581242016 H 0.0 **** 0.06
18453 H 82.40021818436796 12.839180101514053 106.01225646613878 H 0.0 **** 0.06
18454 H 80.97167852059334 13.380119191937055 105.09728159596597 H 0.0 **** 0.06
18455 H 82.6052678904461 13.75052322277461 104.49575751378094 H 0.0 **** 0.06
18456 C 160.30554452125304 109.6852511947146 136.38724158399617 C 0.0 **** -0.24
18457 H 159.60651261325893 109.39366324106521 135.6041913463911 H 0.0 **** 0.06
18458 H 160.78791161711382 110.62376059728544 136.11230891749597 H 0.0 **** 0.06
18459 H 161.06172065670975 108.90933269608888 136.5060438880557 H 0.0 **** 0.06
18460 H 159.76736312049886 109.81448526296967 137.32600362875792 H 0.0 **** 0.06
18461 C 63.97440857290917 85.27845764765023 14.302248788172363 C 0.0 **** -0.24
18462 H 64.31329359958443 85.3288798126145 13.268091951628037 H 0.0 **** 0.06
18463 H 62.96259401892445 85.67957058279175 14.372801065681784 H 0.0 **** 0.06
18464 H 64.64264950816982 85.86607023154785 14.931937097440311 H 0.0 **** 0.06
18465 H 63.979238930301676 84.24071454991794 14.636080774333323 H 0.0 **** 0.06
18466 C 79.7166180431193 44.75350695181946 21.199137630365072 C 0.0 **** -0.24
18467 H 79.43348683376757 45.05193042892802 22.209099034035717 H 0.0 **** 0.06
18468 H 79.50400783760969 43.69306261872828 21.06079169997085 H 0.0 **** 0.06
18469 H 80.78267540323151 44.93296900441241 21.05407219123427 H 0.0 **** 0.06
18470 H 79.14861393823048 45.33716132330821 20.47531808101172 H 0.0 **** 0.06
18471 C 162.0759490674116 111.80017531260577 155.596486695972 C 0.0 **** -0.24
18472 H 162.40961386966882 112.59936014046707 154.9337549999184 H 0.0 **** 0.06
18473 H 161.60599773296025 111.01290601868149 155.0062327789928 H 0.0 **** 0.06
18474 H 161.35626480846238 112.19850847579951 156.31097258409645 H 0.0 **** 0.06
18475 H 162.9320788076104 111.39146167219755 156.13222623286913 H 0.0 **** 0.06
18476 C 76.28584029529688 136.49249537271442 11.643942467027216 C 0.0 **** -0.24
18477 H 75.91434924476869 135.9837750564517 12.533621005589367 H 0.0 **** 0.06
18478 H 75.50635189010275 137.13923175541998 11.241912971688663 H 0.0 **** 0.06
18479 H 76.5676837050153 135.75303195902154 10.89479696129365 H 0.0 **** 0.06
18480 H 77.15676322037406 137.09305543845875 11.906860188059682 H 0.0 **** 0.06
18481 C 97.0221410377668 3.072202128383964 7.371342174727772 C 0.0 **** -0.24
18482 H 97.44312672747947 3.9854944706636957 6.951196967681199 H 0.0 **** 0.06
18483 H 97.07162173945062 3.11556177037059 8.459129581649592 H 0.0 **** 0.06
18484 H 97.59025178714353 2.2126107326236024 7.015158686747299 H 0.0 **** 0.06
18485 H 95.9815359997674 2.9751468371066494 7.05894125495854 H 0.0 **** 0.06
18486 C 37.44249909917775 68.63602420718834 113.84019938715045 C 0.0 **** -0.24
18487 H 36.6387281062152 69.11323327222264 113.27910619515058 H 0.0 **** 0.06
18488 H 37.66879935136875 67.66645143370918 113.39666958469559 H 0.0 **** 0.06
18489 H 37.13169216799295 68.49948833128387 114.87556108013825 H 0.0 **** 0.06
18490 H 38.330747509463706 69.26769223525437 113.8079325639685 H 0.0 **** 0.06
18491 C 119.08543642135191 114.0378661054462 153.3890482236397 C 0.0 **** -0.24
18492 H 119.02259713657728 115.04287973025089 153.80697251229148 H 0.0 **** 0.06
18493 H 118.56727209184288 114.00955937020842 152.43007933109962 H 0.0 **** 0.06
18494 H 118.6215280137568 113.32914355506875 154.07444312191853 H 0.0 **** 0.06
18495 H 120.13212041376076 113.77059118128022 153.2431626664556 H 0.0 **** 0.06
18496 C 63.763759376978726 63.529738108830074 72.33748242784225 C 0.0 **** -0.24
18497 H 64.58278800224807 64.24728275656598 72.29053949703324 H 0.0 **** 0.06
18498 H 63.06600577231228 63.720776948279195 71.52205988095952 H 0.0 **** 0.06
18499 H 63.24620404024523 63.6315061588447 73.29124528449651 H 0.0 **** 0.06
18500 H 64.16224181806399 62.51862294786905 72.24533158652811 H 0.0 **** 0.06
18501 C 115.99098836762357 89.48288025002928 95.3709534040908 C 0.0 **** -0.24
18502 H 116.9956668953593 89.87122596460124 95.20997372357549 H 0.0 **** 0.06
18503 H 115.32405172775691 89.87292406370668 94.60124031676781 H 0.0 **** 0.06
18504 H 115.63410156552695 89.79388124585591 96.353091920089 H 0.0 **** 0.06
18505 H 116.00867258945394 88.39424867052043 95.31896870193953 H 0.0 **** 0.06
18506 C 76.73686019920328 76.97910074631133 84.72061539134867 C 0.0 **** -0.24
18507 H 76.00745010286977 77.10056098396788 85.52198996345837 H 0.0 **** 0.06
18508 H 77.50166274961649 77.7520476313928 84.80542147418245 H 0.0 **** 0.06
18509 H 76.23489601750626 77.06938383863678 83.75691688998859 H 0.0 **** 0.06
18510 H 77.20173946769728 75.99666934976595 84.79795003716734 H 0.0 **** 0.06
18511 C 101.25875061410383 43.04254622463765 147.670434676181 C 0.0 **** -0.24
18512 H 101.23291256447897 42.13978885922103 148.2788944716251 H 0.0 **** 0.06
18513 H 100.31772306614593 43.58237780576334 147.78032963442803 H 0.0 **** 0.06
18514 H 101.40198096922708 42.772283406441375 146.62452841293032 H 0.0 **** 0.06
18515 H 102.081471641512 43.67774938467994 147.99766073282927 H 0.0 **** 0.06
18516 C 108.2303554934079 70.16974018695184 73.55779996061972 C 0.0 **** -0.24
18517 H 108.52265959393424 69.24508950004308 74.05406826878689 H 0.0 **** 0.06
18518 H 107.8802909918279 69.94656780543727 72.54954462899487 H 0.0 **** 0.06
18519 H 109.08916605253341 70.83920310639192 73.50442680721346 H 0.0 **** 0.06
18520 H 107.43123495300063 70.64919095425411 74.12286470855572 H 0.0 **** 0.06
18521 C 82.62793719033664 78.21909215097362 113.82570184686347 C 0.0 **** -0.24
18522 H 82.30508225633525 77.94124447910731 112.82208078467272 H 0.0 **** 0.06
18523 H 82.52939339248928 77.36089109524823 114.48975673631224 H 0.0 **** 0.06
18524 H 82.00792995541605 79.03697651420983 114.1922097457414 H 0.0 **** 0.06
18525 H 83.67001555565042 78.5376048031385 113.79523493021637 H 0.0 **** 0.06
18526 C 33.21555774284681 134.94256666668906 67.37706924497118 C 0.0 **** -0.24
18527 H 34.11747289588817 135.45865795572814 67.70376581153917 H 0.0 **** 0.06
18528 H 32.888112185379384 134.2556353045794 68.15651874450866 H 0.0 **** 0.06
18529 H 33.426412795615306 134.3847963164792 66.46462349878091 H 0.0 **** 0.06
18530 H 32.43003800938024 135.67341189121998 67.18238516378169 H 0.0 **** 0.06
18531 C 36.44486335941224 153.49448171410708 13.125814926813348 C 0.0 **** -0.24
18532 H 36.15333793311537 152.48685746330136 12.829058867676537 H 0.0 **** 0.06
18533 H 37.22420103447379 153.4378048127102 13.885490094513585 H 0.0 **** 0.06
18534 H 35.57968680440112 154.01927117286817 13.52979435613571 H 0.0 **** 0.06
18535 H 36.8232136583146 154.0331442683726 12.25684106673026 H 0.0 **** 0.06
18536 C 94.97514428235425 49.32041105306743 60.8329776958123 C 0.0 **** -0.24
18537 H 95.4858020349604 50.175345685208754 61.27793312918595 H 0.0 **** 0.06
18538 H 94.19188047687051 48.97422631699931 61.507926449107345 H 0.0 **** 0.06
18539 H 95.69332780445721 48.51679949535901 60.665849627197616 H 0.0 **** 0.06
18540 H 94.53291447257995 49.61654970558101 59.88224191683716 H 0.0 **** 0.06
18541 C 79.36463188560322 147.59832423965338 44.198008267516485 C 0.0 **** -0.24
18542 H 79.86050511005516 148.4976289174179 43.833381496243675 H 0.0 **** 0.06
18543 H 78.73291544362877 147.18643687518374 43.41029447097165 H 0.0 **** 0.06
18544 H 78.74905973843471 147.848342673744 45.06341085492295 H 0.0 **** 0.06
18545 H 80.1144994858349 146.8620354595526 44.48608160783789 H 0.0 **** 0.06
18546 C 115.79448433943762 63.313482212234035 68.70545703393748 C 0.0 **** -0.24
18547 H 116.48874491246025 62.74101926422047 68.08955500088649 H 0.0 **** 0.06
18548 H 116.30191748786169 63.64067400010667 69.61372738568241 H 0.0 **** 0.06
18549 H 114.94278238305608 62.68779453949679 68.97043729587716 H 0.0 **** 0.06
18550 H 115.44756257675436 64.18368253716349 68.14810118225557 H 0.0 **** 0.06
18551 C 83.47658351301718 63.66319568903715 70.67914600601189 C 0.0 **** -0.24
18552 H 82.5384965689617 63.17287437795359 70.42228864917485 H 0.0 **** 0.06
18553 H 83.267593805051 64.62267103416622 71.15298589546465 H 0.0 **** 0.06
18554 H 84.06118777999362 63.826550917809996 69.77354908145054 H 0.0 **** 0.06
18555 H 84.04063195518484 63.03265347005595 71.36613342097209 H 0.0 **** 0.06
18556 C 116.28658597142802 153.4176960747158 34.920276392019616 C 0.0 **** -0.24
18557 H 116.41609773586092 152.44850546064697 35.40260214468796 H 0.0 **** 0.06
18558 H 115.73804526575674 154.0830713644817 35.58634294174064 H 0.0 **** 0.06
18559 H 115.72994483060387 153.2900361358099 33.99220612695751 H 0.0 **** 0.06
18560 H 117.26470305162087 153.84686729897788 34.701598747347646 H 0.0 **** 0.06
18561 C 40.14035273090428 49.70977159009186 106.57836905570215 C 0.0 **** -0.24
18562 H 39.245091026057366 50.32501324313321 106.6786741089214 H 0.0 **** 0.06
18563 H 40.556154496854106 49.51021208370261 107.56616344793883 H 0.0 **** 0.06
18564 H 40.87689227739088 50.23697726636763 105.97229602629807 H 0.0 **** 0.06
18565 H 39.87959657130125 48.76721373687462 106.09573066922587 H 0.0 **** 0.06
18566 C 9.331742966253415 27.408663951421772 16.533237493376475 C 0.0 **** -0.24
18567 H 10.086093097883051 27.72831445665912 15.814443167584272 H 0.0 **** 0.06
18568 H 9.534487773080237 27.8687446178796 17.500107269984113 H 0.0 **** 0.06
18569 H 9.362488428725541 26.3233883839531 16.633464917663503 H 0.0 **** 0.06
18570 H 8.344538022521398 27.712695322790864 16.184380504708997 H 0.0 **** 0.06
18571 C 87.80307816913233 155.4536807740809 25.778463369191286 C 0.0 **** -0.24
18572 H 88.6781103428595 155.8768777208866 25.286773581018366 H 0.0 **** 0.06
18573 H 87.77929249424784 154.37580104826276 25.611393142443347 H 0.0 **** 0.06
18574 H 86.90014520254641 155.90559755086488 25.366671953059324 H 0.0 **** 0.06
18575 H 87.8548364526905 155.6540846004456 26.84837047985991 H 0.0 **** 0.06
18576 C 28.864985745594396 18.713832720005115 40.92026221144252 C 0.0 **** -0.24
18577 H 28.384157514555596 18.723432147463825 41.898211548667405 H 0.0 **** 0.06
18578 H 28.371277223354127 17.981959883178547 40.2800599495159 H 0.0 **** 0.06
18579 H 29.91536754378987 18.448126892632843 41.034609547506506 H 0.0 **** 0.06
18580 H 28.787406356758055 19.702765056236302 40.467878363995084 H 0.0 **** 0.06
18581 C 96.33143914944301 86.15928332392681 155.9060809903621 C 0.0 **** -0.24
18582 H 95.4533064863296 86.21611459685944 156.5492723199652 H 0.0 **** 0.06
18583 H 96.04266340630815 86.37289611582723 154.8769187076886 H 0.0 **** 0.06
18584 H 96.75877018316038 85.15757839120812 155.96338987024686 H 0.0 **** 0.06
18585 H 97.07114941642638 86.88884904174586 156.23619528812273 H 0.0 **** 0.06
18586 C 31.285032051146402 9.102136385948342 47.16899442400492 C 0.0 **** -0.24
18587 H 30.807977697447996 10.010172688302276 46.80076615094451 H 0.0 **** 0.06
18588 H 32.27051443825462 9.344310317201234 47.56705737496951 H 0.0 **** 0.06
18589 H 31.388875914557275 8.388823990786591 46.35075804909238 H 0.0 **** 0.06
18590 H 30.67288962088179 8.66410309643274 47.956563024597614 H 0.0 **** 0.06
18591 C 94.93969079581342 50.756639741727795 55.21726837364548 C 0.0 **** -0.24
18592 H 95.24418846456791 49.7212626847744 55.0615686573267 H 0.0 **** 0.06
18593 H 94.06996525586425 50.97675383869513 54.5988695534101 H 0.0 **** 0.06
18594 H 95.7597089624802 51.42056285786114 54.94273208652254 H 0.0 **** 0.06
18595 H 94.68665834503622 50.906262557402655 56.26762426323813 H 0.0 **** 0.06
18596 C 90.30235048090948 53.29913080787095 59.52556499893828 C 0.0 **** -0.24
18597 H 89.78435133598886 53.678352346554675 60.40622483908345 H 0.0 **** 0.06
18598 H 90.88097968295209 52.416579415432054 59.7966390010514 H 0.0 **** 0.06
18599 H 90.97035650277716 54.06832131377456 59.13830311221213 H 0.0 **** 0.06
18600 H 89.57165080766107 53.03544436704432 58.76121410324174 H 0.0 **** 0.06
18601 C 90.17611373263355 95.50296332159556 38.94245049213524 C 0.0 **** -0.24
18602 H 89.51848364645357 94.80785006916956 39.46419763898933 H 0.0 **** 0.06
18603 H 90.63509409252913 96.17877968428778 39.664149275015006 H 0.0 **** 0.06
18604 H 89.59709201917147 96.07897035149192 38.22174905379785 H 0.0 **** 0.06
18605 H 90.9539847430076 94.94407541858295 38.42175972714563 H 0.0 **** 0.06
18606 C 32.224637939208606 2.845885822998639 1.6238769470804684 C 0.0 **** -0.24
18607 H 32.83459864994316 2.0849923634452523 2.1101391306313957 H 0.0 **** 0.06
18608 H 31.169757133921536 2.586026838991387 1.72761093508948 H 0.0 **** 0.06
18609 H 32.48380559688178 2.8981550831528864 0.5668140914236588 H 0.0 **** 0.06
18610 H 32.408238192630535 3.812423575161631 2.091707617606737 H 0.0 **** 0.06
18611 C 105.15585370660358 70.13528972584129 47.27777589361487 C 0.0 **** -0.24
18612 H 105.24911419586712 70.9150666628808 48.03417743338942 H 0.0 **** 0.06
18613 H 104.10127975318832 69.9736069065217 47.05276406584677 H 0.0 **** 0.06
18614 H 105.59439066692292 69.21119280713083 47.65258255625258 H 0.0 **** 0.06
18615 H 105.67827596271212 70.44426092773563 46.37183126536004 H 0.0 **** 0.06
18616 C 117.23960354508901 103.82804626724214 94.99581418342682 C 0.0 **** -0.24
18617 H 116.5992334236467 103.10586399333877 94.48923770260964 H 0.0 **** 0.06
18618 H 117.5421464476839 104.60156490881229 94.2894194057584 H 0.0 **** 0.06
18619 H 118.12336733260099 103.32179816537757 95.38272405747409 H 0.0 **** 0.06
18620 H 116.69084535511519 104.28318046530032 95.82088096511046 H 0.0 **** 0.06
18621 C 157.16989424703337 18.35543814046889 147.83981156470924 C 0.0 **** -0.24
18622 H 156.5012844878152 18.395499722094257 146.97927339142092 H 0.0 **** 0.06
18623 H 156.61734891170022 18.008886674872087 148.71319612668694 H 0.0 **** 0.06
18624 H 157.5723382494466 19.349186025511585 148.0340505806795 H 0.0 **** 0.06
18625 H 157.98872022193245 17.6656270586123 147.63115490193144 H 0.0 **** 0.06
18626 C 47.05237262269557 93.96666268889287 34.35756499406787 C 0.0 **** -0.24
18627 H 46.72878528499548 94.67798198123707 35.117545230458376 H 0.0 **** 0.06
18628 H 46.21180810213923 93.33645468624827 34.06951296175953 H 0.0 **** 0.06
18629 H 47.85277599009592 93.34482780046734 34.759973631831485 H 0.0 **** 0.06
18630 H 47.417157209518734 94.5087976038191 33.48566433024348 H 0.0 **** 0.06
18631 C 116.793501333873 35.24455696453492 76.29337785725443 C 0.0 **** -0.24
18632 H 117.81612542348995 35.62063537317022 76.24885943146353 H 0.0 **** 0.06
18633 H 116.75585371407357 34.372589720855814 76.94732103316744 H 0.0 **** 0.06
18634 H 116.4656164498954 34.964439342356 75.29333765070112 H 0.0 **** 0.06
18635 H 116.13870649041505 36.02206943621172 76.68632939742474 H 0.0 **** 0.06
18636 C 96.15451085955237 49.29686662552925 64.07588248916534 C 0.0 **** -0.24
18637 H 97.17655932533634 49.67394496053129 64.04360695607244 H 0.0 **** 0.06
18638 H 95.45900248374268 50.13523948564432 64.11873003996101 H 0.0 **** 0.06
18639 H 96.02646963092451 48.67158604155999 64.96007620277254 H 0.0 **** 0.06
18640 H 95.95732133141938 48.70505325188927 63.18188300117879 H 0.0 **** 0.06
18641 C 124.46120640721674 113.35224759593677 59.4073770300332 C 0.0 **** -0.24
18642 H 125.30255422245727 112.95300695665998 58.84143833648237 H 0.0 **** 0.06
18643 H 124.76341888344717 113.51085134337595 60.443269577761924 H 0.0 **** 0.06
18644 H 123.63228067698918 112.64535278434676 59.37502416525736 H 0.0 **** 0.06
18645 H 124.14783429696064 114.30090573610192 58.971547350559575 H 0.0 **** 0.06
18646 C 83.41780274839005 31.395704658434738 128.49737167509124 C 0.0 **** -0.24
18647 H 84.49848677243779 31.381157276070894 128.64216566147795 H 0.0 **** 0.06
18648 H 83.17973668336998 31.969891260888176 127.60170032634483 H 0.0 **** 0.06
18649 H 82.94168316734184 31.857056055587293 129.36243750027734 H 0.0 **** 0.06
18650 H 83.0533828548096 30.37552276872981 128.38302192595614 H 0.0 **** 0.06
18651 C 29.072256058062237 32.17410085407419 65.7542971417389 C 0.0 **** -0.24
18652 H 28.449733363453277 31.378483351372616 65.34512952852418 H 0.0 **** 0.06
18653 H 29.58361406084441 32.69001716107782 64.94091884879583 H 0.0 **** 0.06
18654 H 29.808684037317988 31.746304671997827 66.4338742789854 H 0.0 **** 0.06
18655 H 28.445852494780866 32.88241575993078 66.2970884869327 H 0.0 **** 0.06
18656 C 144.74273471136215 12.945956854105816 76.37426151847512 C 0.0 **** -0.24
18657 H 144.69823766702496 13.239125462865445 77.42292877817476 H 0.0 **** 0.06
18658 H 144.04097435932857 13.548974050496838 75.79809789253147 H 0.0 **** 0.06
18659 H 144.47995216152404 11.892383160727093 76.28023144698474 H 0.0 **** 0.06
18660 H 145.75386521992493 13.103562974087396 75.99655089450823 H 0.0 **** 0.06
18661 C 76.22872300904363 160.30836136986557 99.15461976893661 C 0.0 **** -0.24
18662 H 76.60187904117244 160.62915799882563 100.12784841190404 H 0.0 **** 0.06
18663 H 76.85413720394504 160.73357545578347 98.36837363499012 H 0.0 **** 0.06
18664 H 75.20247559162183 160.65068882191272 99.0281920939087 H 0.0 **** 0.06
18665 H 76.25909735281589 159.22034070849884 99.09568507557401 H 0.0 **** 0.06
18666 C 59.80329356592239 107.14355229474734 153.9222783200284 C 0.0 **** -0.24
18667 H 58.79741547294026 107.45794725834116 154.20254775742467 H 0.0 **** 0.06
18668 H 60.136981558381535 107.72169189659644 153.06036603217694 H 0.0 **** 0.06
18669 H 59.79320809266761 106.08372298033987 153.66745687540364 H 0.0 **** 0.06
18670 H 60.481837206349496 107.31073189806278 154.7584979981303 H 0.0 **** 0.06
18671 C 9.570814593405288 128.0275994852816 43.79128232566279 C 0.0 **** -0.24
18672 H 9.282052902239556 126.99147633352305 43.61392290323272 H 0.0 **** 0.06
18673 H 10.658004589700674 128.098803945334 43.83298020949027 H 0.0 **** 0.06
18674 H 9.147186181086518 128.36490924381462 44.73750849603067 H 0.0 **** 0.06
18675 H 9.19578281656488 128.65303985295924 42.981832922380306 H 0.0 **** 0.06
18676 C 29.491818863849005 107.65146890163976 129.63509588675348 C 0.0 **** -0.24
18677 H 30.055916318843288 108.32169134138098 130.2836888235631 H 0.0 **** 0.06
18678 H 29.48367597860522 108.04899316942169 128.6203974123974 H 0.0 **** 0.06
18679 H 28.4684148701416 107.56900515448052 130.00184630443079 H 0.0 **** 0.06
18680 H 29.95893395552622 106.66652880894861 129.6374125831125 H 0.0 **** 0.06
18681 C 50.8668013264529 66.91131338692952 17.83785739529347 C 0.0 **** -0.24
18682 H 51.498566944786546 66.41830524497576 17.098494795691472 H 0.0 **** 0.06
18683 H 49.93852906095806 67.23310253249588 17.365651713151216 H 0.0 **** 0.06
18684 H 51.390039961538164 67.7778480662601 18.241223003553635 H 0.0 **** 0.06
18685 H 50.64183801934915 66.21404188498539 18.645036945309016 H 0.0 **** 0.06
18686 C 151.6380234627942 109.90651913228044 132.25536960576954 C 0.0 **** -0.24
18687 H 151.29554347038618 110.03854619215298 133.28154802886115 H 0.0 **** 0.06
18688 H 152.67184078918729 110.24387308891835 132.17199129428275 H 0.0 **** 0.06
18689 H 151.00975119750962 110.49147549411646 131.58399053424745 H 0.0 **** 0.06
18690 H 151.57724439007774 108.85219695794137 131.98482843629074 H 0.0 **** 0.06
18691 C 103.05893755285214 45.12846417074812 76.70862649349395 C 0.0 **** -0.24
18692 H 103.07588368843224 46.19470945867549 76.48341622765261 H 0.0 **** 0.06
18693 H 102.29413237071 44.92825990973799 77.45918105536973 H 0.0 **** 0.06
18694 H 104.03248033684895 44.82302407898101 77.09135177035522 H 0.0 **** 0.06
18695 H 102.83379952803202 44.56914161538839 75.80029614633946 H 0.0 **** 0.06
18696 C 50.08750234551556 44.91633417705147 15.108164438053983 C 0.0 **** -0.24
18697 H 49.968408493482 44.58538285536808 14.076468875805787 H 0.0 **** 0.06
18698 H 50.874624645594 45.669505619319764 15.158405426536042 H 0.0 **** 0.06
18699 H 50.35740279071484 44.066211576015036 15.734036744284587 H 0.0 **** 0.06
18700 H 49.149790496641344 45.34550219511324 15.461916007034894 H 0.0 **** 0.06
18701 C 1.929968994781433 30.922114685132044 63.708822833306144 C 0.0 **** -0.24
18702 H 2.4474810116153876 30.510382021878456 64.57526520370565 H 0.0 **** 0.06
18703 H 2.0606777308913635 30.25367769980849 62.85698474911432 H 0.0 **** 0.06
18704 H 2.3444141095926696 31.90110160384114 63.46944928227893 H 0.0 **** 0.06
18705 H 0.8679545448336299 31.021009482502876 63.93300797415847 H 0.0 **** 0.06
18706 C 107.23143790167444 129.75022409382748 38.40978512065014 C 0.0 **** -0.24
18707 H 107.59900601141442 130.0114050609968 37.41760064565257 H 0.0 **** 0.06
18708 H 107.22847219974142 128.666095365448 38.52239932277067 H 0.0 **** 0.06
18709 H 106.2178968411248 130.13193784881318 38.53259384287374 H 0.0 **** 0.06
18710 H 107.88110794670638 130.19278327008752 39.16523934180567 H 0.0 **** 0.06
18711 C 130.97275121713315 91.16061110440988 137.19691008705755 C 0.0 **** -0.24
18712 H 130.68484144851044 91.68854548698751 136.28681000319096 H 0.0 **** 0.06
18713 H 131.74544031454863 91.72819929797149 137.71662933214176 H 0.0 **** 0.06
18714 H 131.35686354300947 90.1745608770518 136.93830714002306 H 0.0 **** 0.06
18715 H 130.10251727937947 91.05395971877755 137.84439694094715 H 0.0 **** 0.06
18716 C 36.95445126578977 140.22425353624817 92.81688988946611 C 0.0 **** -0.24
18717 H 36.3302336899994 140.00695271095316 93.68449502470301 H 0.0 **** 0.06
18718 H 36.62219220893718 139.6214165509403 91.97071709627231 H 0.0 **** 0.06
18719 H 37.99260903883595 139.9873616996107 93.04807061685956 H 0.0 **** 0.06
18720 H 36.86955004226121 141.282010631656 92.566038156554 H 0.0 **** 0.06
18721 C 161.3821383118103 96.84106812542458 40.860556553834726 C 0.0 **** -0.24
18722 H 160.57027068704468 96.84183026486929 40.13376964409247 H 0.0 **** 0.06
18723 H 162.15239738571609 97.54573000556204 40.544785285957516 H 0.0 **** 0.06
18724 H 161.80937652993885 95.84060791035324 40.92639506422847 H 0.0 **** 0.06
18725 H 160.9966001695464 97.1375316443588 41.835557348797636 H 0.0 **** 0.06
18726 C 85.65622322848 138.702350676556 130.99013224714878 C 0.0 **** -0.24
18727 H 85.8387827214707 137.88145295382023 130.29660155658087 H 0.0 **** 0.06
18728 H 84.59024148398495 138.7603120096748 131.21168197080783 H 0.0 **** 0.06
18729 H 85.98499505827715 139.63825359143658 130.54008266442645 H 0.0 **** 0.06
18730 H 86.20974028557168 138.52775027243717 131.91318557507248 H 0.0 **** 0.06
18731 C 30.105836431987257 149.98541501581494 94.64237617260653 C 0.0 **** -0.24
18732 H 30.13653252735577 149.9392103517527 93.55360220761735 H 0.0 **** 0.06
18733 H 29.10867841978785 150.28422692054758 94.96478613502488 H 0.0 **** 0.06
18734 H 30.836005229379936 150.71349304626716 94.99569439186544 H 0.0 **** 0.06
18735 H 30.342269253848627 149.00426551633618 95.05454731002085 H 0.0 **** 0.06
18736 C 66.32677344963709 51.41213689172004 150.8405228911191 C 0.0 **** -0.24
18737 H 66.09765501970064 51.64042721853532 149.7997860767085 H 0.0 **** 0.06
18738 H 67.26250656894629 51.894816933180465 151.1207305506318 H 0.0 **** 0.06
18739 H 66.42237469603768 50.33384270602994 150.9636239625807 H 0.0 **** 0.06
18740 H 65.52240504048488 51.78050918623407 151.47743354320212 H 0.0 **** 0.06
18741 C 133.4938039422826 129.42332344267857 132.36546196683798 C 0.0 **** -0.24
18742 H 132.81790980555127 130.2553020588172 132.56420946190065 H 0.0 **** 0.06
18743 H 133.8602984757752 129.4898527551769 131.34089353332303 H 0.0 **** 0.06
18744 H 132.96075766485242 128.48258783785633 132.50127812095442 H 0.0 **** 0.06
18745 H 134.33596289124955 129.46680275343275 133.05605932308043 H 0.0 **** 0.06
18746 C 38.9555651152092 46.66121134400241 82.9744358645822 C 0.0 **** -0.24
18747 H 39.50055842817112 45.94662035745354 83.59079846106307 H 0.0 **** 0.06
18748 H 38.94414741594295 47.63245013701345 83.46876034266946 H 0.0 **** 0.06
18749 H 37.93219185267047 46.3121916382331 82.83304881969106 H 0.0 **** 0.06
18750 H 39.44486758869722 46.75314028926131 82.00438842386777 H 0.0 **** 0.06
18751 C 89.80142258187176 114.99400235759481 9.608095309791423 C 0.0 **** -0.24
18752 H 89.32689159160059 114.29157574316395 8.923730632605455 H 0.0 **** 0.06
18753 H 89.16392325984305 115.1378879474452 10.480476768234112 H 0.0 **** 0.06
18754 H 89.94935050519949 115.9483123833619 9.103447378351127 H 0.0 **** 0.06
18755 H 90.76591638453147 114.59657191576 9.925020570222252 H 0.0 **** 0.06
18756 C 68.919844855962 145.5104447491568 20.35757832449997 C 0.0 **** -0.24
18757 H 68.05146753869671 146.08610920962786 20.036092490539005 H 0.0 **** 0.06
18758 H 69.60022242827964 146.15852648511483 20.911267154569572 H 0.0 **** 0.06
18759 H 69.43219419718665 145.10822498460905 19.4827987452299 H 0.0 **** 0.06
18760 H 68.59618308425988 144.69138355499484 20.998589732923477 H 0.0 **** 0.06
18761 C 18.484135548473212 121.19896982950846 96.91645488049878 C 0.0 **** -0.24
18762 H 19.35228787016264 120.6758292981032 97.31580729224623 H 0.0 **** 0.06
18763 H 18.291320708489913 122.09114782698435 97.5133617032898 H 0.0 **** 0.06
18764 H 17.614773900864137 120.54225766247387 96.95301059327704 H 0.0 **** 0.06
18765 H 18.6778828032987 121.48794698624192 95.88316349894353 H 0.0 **** 0.06
18766 C 99.12513643921238 1.9371374413465787 92.84398285492676 C 0.0 **** -0.24
18767 H 98.67280513719365 2.165155465179737 91.87823233581277 H 0.0 **** 0.06
18768 H 98.44119182024087 1.3201752582090762 93.42788208994257 H 0.0 **** 0.06
18769 H 99.32613399623463 2.8649153576917 93.37879959804391 H 0.0 **** 0.06
18770 H 100.05911609296561 1.3969896880551005 92.68792108229762 H 0.0 **** 0.06
18771 C 131.11286648456257 140.81390706756292 108.85247122196395 C 0.0 **** -0.24
18772 H 131.7300144639059 141.70996555137668 108.90597241265107 H 0.0 **** 0.06
18773 H 131.48289986350642 140.0749623685815 109.5646305774234 H 0.0 **** 0.06
18774 H 131.15786597209933 140.40137240377476 107.84439827677593 H 0.0 **** 0.06
18775 H 130.0815780734393 141.06793013283425 109.09538338870018 H 0.0 **** 0.06
18776 C 152.12561360715773 55.604610238398095 43.595278698646666 C 0.0 **** -0.24
18777 H 151.0857303642976 55.34016288718516 43.40744300082156 H 0.0 **** 0.06
18778 H 152.3132021254085 55.599715856839964 44.66951586140678 H 0.0 **** 0.06
18779 H 152.3255528632612 56.59882992283144 43.19617300118642 H 0.0 **** 0.06
18780 H 152.7790630287583 54.880002143918034 43.10929842889834 H 0.0 **** 0.06
18781 C 107.31726017121426 38.042865181040696 60.902061169696566 C 0.0 **** -0.24
18782 H 107.79766232211946 39.000561220961146 60.70310914592066 H 0.0 **** 0.06
18783 H 107.02433363153054 37.99532157692758 61.95168136494088 H 0.0 **** 0.06
18784 H 108.01528880156852 37.234356874490715 60.682627273296646 H 0.0 **** 0.06
18785 H 106.43350428952172 37.94064832430141 60.27297525735116 H 0.0 **** 0.06
18786 C 46.51573516761141 68.73458392789667 40.73766457580777 C 0.0 **** -0.24
18787 H 46.373423037908765 68.62860728307265 41.813792406335864 H 0.0 **** 0.06
18788 H 47.4454060609354 68.24644090792924 40.44446960462159 H 0.0 **** 0.06
18789 H 46.56334303485221 69.79294826502286 40.48025382685799 H 0.0 **** 0.06
18790 H 45.67954360912353 68.2712994386103 40.214033967968305 H 0.0 **** 0.06
18791 C 68.18086227944049 14.034783215153112 7.620756970050422 C 0.0 **** -0.24
18792 H 68.70035447662508 14.117613697351509 8.575515489293025 H 0.0 **** 0.06
18793 H 67.26068631066562 13.466766641784254 7.756489078814781 H 0.0 **** 0.06
18794 H 68.82138430058936 13.52415171896262 6.901434454373202 H 0.0 **** 0.06
18795 H 67.94137949538292 15.032075901363783 7.251231379733042 H 0.0 **** 0.06
18796 C 49.44781160032515 16.76652300085287 62.01377836712243 C 0.0 **** -0.24
18797 H 50.20244251500411 16.726680846971398 61.228597735009146 H 0.0 **** 0.06
18798 H 49.65350086254479 17.611150485026947 62.6720748239982 H 0.0 **** 0.06
18799 H 49.47285173311337 15.841314718194802 62.589582573380056 H 0.0 **** 0.06
18800 H 48.4622449255811 16.887784837732156 61.563738627838774 H 0.0 **** 0.06
18801 C 46.441154538199726 84.50481945255788 68.49819857381993 C 0.0 **** -0.24
18802 H 47.40492146289404 84.70966587080017 68.96379722102024 H 0.0 **** 0.06
18803 H 46.587851385764054 84.28021013950416 67.4411741736508 H 0.0 **** 0.06
18804 H 45.79643002367112 85.37815596224522 68.59842086196231 H 0.0 **** 0.06
18805 H 45.97460789318194 83.65081737220586 68.98980771497445 H 0.0 **** 0.06
18806 C 46.42949753213702 12.616820033897653 132.91171868588398 C 0.0 **** -0.24
18807 H 46.38913731125015 12.212563696564501 131.89997082212574 H 0.0 **** 0.06
18808 H 47.21916424173439 12.11411274576173 133.47151666121792 H 0.0 **** 0.06
18809 H 45.4720872219292 12.452972643616874 133.4070452533576 H 0.0 **** 0.06
18810 H 46.63792663637483 13.685266619754202 132.86889322684317 H 0.0 **** 0.06
18811 C 133.01402227005468 7.91871039614216 134.48220492917403 C 0.0 **** -0.24
18812 H 133.86333810093078 7.948020126892629 133.80054564668725 H 0.0 **** 0.06
18813 H 132.61188172004609 8.924672105937816 134.60591789894747 H 0.0 **** 0.06
18814 H 133.33753689447383 7.533764408853131 135.4494379616415 H 0.0 **** 0.06
18815 H 132.24227487093492 7.2658912488400915 134.07210369223537 H 0.0 **** 0.06
18816 C 30.749205440834658 142.52239027578747 9.732706419159655 C 0.0 **** -0.24
18817 H 31.629229118143712 142.65981934729334 10.36007026711735 H 0.0 **** 0.06
18818 H 29.8542482776582 142.52902045155096 10.355568842443688 H 0.0 **** 0.06
18819 H 30.82112098477353 141.56901030308165 9.21028359638234 H 0.0 **** 0.06
18820 H 30.692223382762904 143.33171100122382 9.004902970695184 H 0.0 **** 0.06
18821 C 154.87638080754846 8.039271940856253 137.34249887308636 C 0.0 **** -0.24
18822 H 154.87378981649167 8.407939832441798 138.36922921188858 H 0.0 **** 0.06
18823 H 155.81308713191584 8.319024043739063 136.85976302690216 H 0.0 **** 0.06
18824 H 154.04022494919704 8.47751349064501 136.79775895714926 H 0.0 **** 0.06
18825 H 154.7792956995296 6.953174824843188 137.3472339600845 H 0.0 **** 0.06
18826 C 111.14647264496597 52.6110412450318 111.80009589631305 C 0.0 **** -0.24
18827 H 112.15442579586693 52.22334071676096 111.9459711359454 H 0.0 **** 0.06
18828 H 110.63399662943101 52.01496053440826 111.04438893985434 H 0.0 **** 0.06
18829 H 111.20070991614875 53.6487123369902 111.4695192700292 H 0.0 **** 0.06
18830 H 110.59694614997738 52.55726241947218 112.73952833352683 H 0.0 **** 0.06
18831 C 89.71088403898727 45.941867560214575 116.30210952034756 C 0.0 **** -0.24
18832 H 90.56696052651694 45.46306320191667 116.77803840765836 H 0.0 **** 0.06
18833 H 89.37331239906018 46.77661814682125 116.91656351249316 H 0.0 **** 0.06
18834 H 88.90278484979513 45.218609252260265 116.19474582639319 H 0.0 **** 0.06
18835 H 90.00254288108903 46.310021147014226 115.31734966118691 H 0.0 **** 0.06
18836 C 0.6847254766895219 96.31839411483047 61.677755605133584 C 0.0 **** -0.24
18837 H 1.7545794074536616 96.52551380579177 61.6586807856836 H 0.0 **** 0.06
18838 H 0.44962816124922256 95.56008451221675 60.930658780418995 H 0.0 **** 0.06
18839 H 0.13435166359337813 97.23296122725384 61.45370078554821 H 0.0 **** 0.06
18840 H 0.40182851640221884 95.95613468810899 62.665627684351804 H 0.0 **** 0.06
18841 C 24.710389070234385 63.858336785787984 48.48823419787985 C 0.0 **** -0.24
18842 H 25.783699633995525 63.82417478573569 48.298149260617635 H 0.0 **** 0.06
18843 H 24.417910844857033 64.87878072997424 48.736599882747015 H 0.0 **** 0.06
18844 H 24.469253061298247 63.19729877992707 49.32097488391301 H 0.0 **** 0.06
18845 H 24.173955940608323 63.53141156211221 47.59793749097693 H 0.0 **** 0.06
18846 C 133.55193101795243 121.47428702729735 106.99885000199652 C 0.0 **** -0.24
18847 H 133.55995296995718 122.41733875297686 107.54497263801096 H 0.0 **** 0.06
18848 H 134.0241661662722 121.61400246522894 106.02601525647054 H 0.0 **** 0.06
18849 H 132.52203539293217 121.14577632324315 106.85879437610095 H 0.0 **** 0.06
18850 H 134.0995578682712 120.72207705593547 107.56474290948341 H 0.0 **** 0.06
18851 C 58.54544536014464 123.84642102504961 87.73439808534052 C 0.0 **** -0.24
18852 H 59.41307678311 124.39222063424802 88.1033212706553 H 0.0 **** 0.06
18853 H 57.6344271515718 124.35499512490497 88.05130831337196 H 0.0 **** 0.06
18854 H 58.555642346543664 122.83404768315461 88.13766856500868 H 0.0 **** 0.06
18855 H 58.579233022719905 123.80378407249589 86.64578137669488 H 0.0 **** 0.06
18856 C 150.72290052971937 8.802967078933335 66.96110391455251 C 0.0 **** -0.24
18857 H 150.54694037475554 7.9267951294125965 67.58661302634057 H 0.0 **** 0.06
18858 H 151.19530284838112 9.584924154401904 67.55728853054624 H 0.0 **** 0.06
18859 H 149.7728015313673 9.166846185382411 66.57016819114457 H 0.0 **** 0.06
18860 H 151.37689674521937 8.531223695751464 66.13309587650845 H 0.0 **** 0.06
18861 C 90.13184106297649 78.44773560094285 127.46753596056652 C 0.0 **** -0.24
18862 H 89.7462126631016 77.50995553772881 127.86996260740315 H 0.0 **** 0.06
18863 H 91.12619610692292 78.28174400786813 127.05319468861524 H 0.0 **** 0.06
18864 H 90.18878804372883 79.18842368628862 128.26567635002837 H 0.0 **** 0.06
18865 H 89.46533259100914 78.80813994173991 126.6843310022594 H 0.0 **** 0.06
18866 C 101.46017484672348 112.70957666103138 24.160798364222074 C 0.0 **** -0.24
18867 H 100.43130083764464 112.88913525230228 23.849944987123536 H 0.0 **** 0.06
18868 H 101.76138694223386 113.47214366525768 24.879944895136703 H 0.0 **** 0.06
18869 H 102.11551049272396 112.75132470117686 23.290862076351516 H 0.0 **** 0.06
18870 H 101.53276865850012 111.72484913116179 24.623536644433784 H 0.0 **** 0.06
18871 C 73.21771790557368 49.52384680281865 14.049144237497273 C 0.0 **** -0.24
18872 H 72.98623794429426 48.49076607925144 13.789465383624929 H 0.0 **** 0.06
18873 H 72.4842224279067 49.890369062003955 14.768118304591098 H 0.0 **** 0.06
18874 H 73.18538607437027 50.139740184971174 13.150420781942444 H 0.0 **** 0.06
18875 H 74.21387623063502 49.57326464856048 14.488219752077384 H 0.0 **** 0.06
18876 C 26.553109990067185 7.935861475913555 58.202376570391635 C 0.0 **** -0.24
18877 H 26.989516093835505 8.719336070641873 58.82269677594948 H 0.0 **** 0.06
18878 H 26.826618887121754 8.104586250890833 57.16087828130057 H 0.0 **** 0.06
18879 H 25.467559643540653 7.956847048852012 58.30180456553725 H 0.0 **** 0.06
18880 H 26.929245064470194 6.965748427130052 58.525947134452565 H 0.0 **** 0.06
18881 C 59.63554532835758 106.88737098809517 20.527573207908702 C 0.0 **** -0.24
18882 H 59.08020537015733 107.64532996534953 19.974628733188787 H 0.0 **** 0.06
18883 H 59.200308579148555 106.77019443329175 21.51986322295315 H 0.0 **** 0.06
18884 H 60.67667157856056 107.19476250228877 20.620564676467176 H 0.0 **** 0.06
18885 H 59.58371069036633 105.93848698052582 19.993549640246705 H 0.0 **** 0.06
18886 C 144.12131729357634 122.82499457901014 92.18074750790794 C 0.0 **** -0.24
18887 H 143.40965655776466 123.61062888248625 91.92719950418854 H 0.0 **** 0.06
18888 H 144.17796853964902 122.1087653048433 91.36015798623723 H 0.0 **** 0.06
18889 H 143.791628678814 122.31457877173546 93.08574860250646 H 0.0 **** 0.06
18890 H 145.10399461012554 123.26451057684869 92.34824615970211 H 0.0 **** 0.06
18891 C 144.91853928157852 37.87218478790503 126.85897084900196 C 0.0 **** -0.24
18892 H 144.84058779280355 38.86798877665076 126.42267870397205 H 0.0 **** 0.06
18893 H 145.8383311952574 37.8028210266276 127.44040475234166 H 0.0 **** 0.06
18894 H 144.93399459247914 37.12748045329447 126.06407374842235 H 0.0 **** 0.06
18895 H 144.06328560382065 37.69256017034324 127.50989786416127 H 0.0 **** 0.06
18896 C 130.2190236988433 147.52916825383062 84.88800150139366 C 0.0 **** -0.24
18897 H 129.39433863581365 146.8650709805019 85.14863581075156 H 0.0 **** 0.06
18898 H 131.1435264121936 146.95430237133144 84.83152306292106 H 0.0 **** 0.06
18899 H 130.31774238723412 148.30175690346326 85.64970434143737 H 0.0 **** 0.06
18900 H 130.02058538526245 147.9938150749478 83.92206805168644 H 0.0 **** 0.06
18901 C 148.49854217145815 67.47695506690509 148.8649379290706 C 0.0 **** -0.24
18902 H 148.53017680376294 68.54623259039595 149.07391084925413 H 0.0 **** 0.06
18903 H 147.5430487549509 67.22554297046874 148.40427085474658 H 0.0 **** 0.06
18904 H 148.61221327574486 66.92166921849065 149.7963016499695 H 0.0 **** 0.06
18905 H 149.30993415304908 67.21546762182243 148.18467087397903 H 0.0 **** 0.06
18906 C 1.0920613839141424 98.27679815206992 8.064076717416611 C 0.0 **** -0.24
18907 H 1.2271688718047074 97.96339654584457 7.028134970720487 H 0.0 **** 0.06
18908 H 1.9423559798784993 98.88508989217902 8.372714239711115 H 0.0 **** 0.06
18909 H 1.0226999306875086 97.39727417022752 8.703473607388844 H 0.0 **** 0.06
18910 H 0.1762947776819317 98.86242700860487 8.14852930715162 H 0.0 **** 0.06
18911 C 158.4679659804721 32.92568961234865 69.31651100824193 C 0.0 **** -0.24
18912 H 159.09677978729118 32.383666874844565 70.0243940991793 H 0.0 **** 0.06
18913 H 157.55214886636105 32.36205292264632 69.13883560865578 H 0.0 **** 0.06
18914 H 159.00553128896573 33.05242529001414 68.37706518874617 H 0.0 **** 0.06
18915 H 158.21865544093617 33.90372578834777 69.72812533047528 H 0.0 **** 0.06
18916 C 67.42283130358099 75.10894364926635 80.5926685322264 C 0.0 **** -0.24
18917 H 66.8426329005662 74.5707252599495 81.3427529672127 H 0.0 **** 0.06
18918 H 66.9176243728949 76.04235565700964 80.34420758841866 H 0.0 **** 0.06
18919 H 67.51555815000737 74.49596919004166 79.69614530339939 H 0.0 **** 0.06
18920 H 68.41478493745359 75.32629368744689 80.9887036363399 H 0.0 **** 0.06
18921 C 1.6309295612020094 54.459690430237956 112.30977937225191 C 0.0 **** -0.24
18922 H 1.930197834155635 54.45447429173913 113.3579626357521 H 0.0 **** 0.06
18923 H 2.322894881600881 55.07784425198075 111.73824399428767 H 0.0 **** 0.06
18924 H 0.6231640911916685 54.864618286809346 112.22316521129781 H 0.0 **** 0.06
18925 H 1.647932842127446 53.440807539650805 111.92252828078321 H 0.0 **** 0.06
18926 C 152.05202564593688 150.39130963096312 142.06468457435295 C 0.0 **** -0.24
18927 H 151.74397335652122 149.37012982734151 141.84121771400038 H 0.0 **** 0.06
18928 H 151.72131351002767 151.05365585169505 141.26473593875681 H 0.0 **** 0.06
18929 H 153.13818720479983 150.43368890347801 142.1465559707807 H 0.0 **** 0.06
18930 H 151.6041035033723 150.70785765101184 143.0070746137057 H 0.0 **** 0.06
18931 C 120.821991736863 25.310631118525293 45.134144907259895 C 0.0 **** -0.24
18932 H 121.33564540327012 26.1123051241658 44.60241979942535 H 0.0 **** 0.06
18933 H 121.55575653756262 24.602210749111606 45.5183410115626 H 0.0 **** 0.06
18934 H 120.14461354173497 24.798346247623925 44.450749813726645 H 0.0 **** 0.06
18935 H 120.25269823613922 25.73042787243628 45.96286525886063 H 0.0 **** 0.06
18936 C 64.90201305009319 82.35139837040181 58.05182676576345 C 0.0 **** -0.24
18937 H 64.33802067265026 82.87872659838482 57.28174272687363 H 0.0 **** 0.06
18938 H 64.41253548251302 81.40262094062447 58.27305509531931 H 0.0 **** 0.06
18939 H 64.9396399496017 82.96135990004498 58.95461467914481 H 0.0 **** 0.06
18940 H 65.91481340812345 82.16461098538181 57.69701876639135 H 0.0 **** 0.06
18941 C 9.442024467051894 74.75878432825402 160.44091193418743 C 0.0 **** -0.24
18942 H 9.020275497862961 73.7552647631455 160.37913682118892 H 0.0 **** 0.06
18943 H 9.247545783268045 75.29201919363277 159.51033497509556 H 0.0 **** 0.06
18944 H 10.517873375345822 74.69060928552747 160.6020893060982 H 0.0 **** 0.06
18945 H 8.982967942895947 75.29427689420919 161.2707164977672 H 0.0 **** 0.06
18946 C 112.86735939070769 107.81756519806021 157.52217575460412 C 0.0 **** -0.24
18947 H 113.75628843753248 108.26343046111356 157.9675521686028 H 0.0 **** 0.06
18948 H 113.14685955049077 106.91348134912539 156.98012599027317 H 0.0 **** 0.06
18949 H 112.41054664851038 108.52816565596743 156.83352928758796 H 0.0 **** 0.06
18950 H 112.15506086027506 107.56537969761837 158.308200025161 H 0.0 **** 0.06
18951 C 71.53414587632712 35.39132735278454 138.8685499274603 C 0.0 **** -0.24
18952 H 71.40983911118862 34.375287666831696 139.241986688791 H 0.0 **** 0.06
18953 H 70.64968523522421 35.68074496781671 138.30186602435523 H 0.0 **** 0.06
18954 H 72.41057830660178 35.435023593512796 138.2218585836459 H 0.0 **** 0.06
18955 H 71.66799451872406 36.07344124468324 139.70871125982399 H 0.0 **** 0.06
18956 C 120.27786909654776 10.482038502903677 108.34140909973536 C 0.0 **** -0.24
18957 H 120.26701544203289 9.399040256428243 108.21530645722731 H 0.0 **** 0.06
18958 H 121.1386710829247 10.899613708468344 107.8188655581344 H 0.0 **** 0.06
18959 H 120.34469392949126 10.722816518905695 109.40201704864069 H 0.0 **** 0.06
18960 H 119.3618901765391 10.904410626828728 107.9298981978911 H 0.0 **** 0.06
18961 C 3.9871723780642867 124.09266758185177 46.93115152382805 C 0.0 **** -0.24
18962 H 3.844620336002606 123.06823118456151 46.58507222197403 H 0.0 **** 0.06
18963 H 3.030410703369057 124.50210677309684 47.257114003429194 H 0.0 **** 0.06
18964 H 4.385450138629693 124.69804736561929 46.11779615553425 H 0.0 **** 0.06
18965 H 4.688460885865254 124.09897993995082 47.76635956891397 H 0.0 **** 0.06
18966 C 51.254025107297664 87.37243672812443 98.22718867747892 C 0.0 **** -0.24
18967 H 51.82499410591397 87.24990226591108 97.30714436007932 H 0.0 **** 0.06
18968 H 51.03029747116385 86.39143762083724 98.64817988743232 H 0.0 **** 0.06
18969 H 50.32314740862324 87.89608231492947 98.0104426191321 H 0.0 **** 0.06
18970 H 51.83869892692363 87.95047695856732 98.9437016994465 H 0.0 **** 0.06
18971 C 23.243711519652884 161.48996656625982 113.57440775419451 C 0.0 **** -0.24
18972 H 24.1813598296522 160.95031091946188 113.43749056231192 H 0.0 **** 0.06
18973 H 22.766563205532535 161.1597014037571 114.49776212912224 H 0.0 **** 0.06
18974 H 22.583144167458443 161.2902804485028 112.73130571316517 H 0.0 **** 0.06
18975 H 23.44682304951617 162.5587771260409 113.63283306635623 H 0.0 **** 0.06
18976 C 141.50947659742133 33.08000016436267 66.52532591913302 C 0.0 **** -0.24
18977 H 142.2884369031096 32.982452364021015 67.28072388647571 H 0.0 **** 0.06
18978 H 141.96326111582175 33.339659373408324 65.5679552405348 H 0.0 **** 0.06
18979 H 140.81117713808786 33.863663526190976 66.82152770523378 H 0.0 **** 0.06
18980 H 140.9755871946556 32.13472753978732 66.42989733769554 H 0.0 **** 0.06
18981 C 75.0090780035925 97.05771055340384 133.676598325109 C 0.0 **** -0.24
18982 H 75.86855001979444 96.74434722030864 133.08356110433658 H 0.0 **** 0.06
18983 H 75.20423786499418 98.03872234968944 134.10889373021865 H 0.0 **** 0.06
18984 H 74.83579240551926 96.33631591659535 134.47429607167763 H 0.0 **** 0.06
18985 H 74.12689629674183 97.11065820883789 133.03748262315463 H 0.0 **** 0.06
18986 C 162.83980694894785 143.637693118663 80.85519009942037 C 0.0 **** -0.24
18987 H 162.98818935596788 144.29669147833724 81.70982080125422 H 0.0 **** 0.06
18988 H 163.23462601192543 144.1129345060944 79.95760424514098 H 0.0 **** 0.06
18989 H 161.77468396239786 143.44509562183885 80.72607353129533 H 0.0 **** 0.06
18990 H 163.36052972655972 142.69614793934744 81.02800590502653 H 0.0 **** 0.06
18991 C 139.39726834629715 31.135130234006027 145.87176699099797 C 0.0 **** -0.24
18992 H 138.48858833436583 30.746165173493665 146.33049965083796 H 0.0 **** 0.06
18993 H 139.45707543312568 30.794597652641926 144.8382920205977 H 0.0 **** 0.06
18994 H 140.26642013589765 30.775574165417368 146.42389061814436 H 0.0 **** 0.06
18995 H 139.37718909581463 32.22513133862259 145.89541652790612 H 0.0 **** 0.06
18996 C 42.20116607034859 33.498321631975784 16.972293692836956 C 0.0 **** -0.24
18997 H 42.93478333499691 34.081056912104714 17.529356667696526 H 0.0 **** 0.06
18998 H 42.29846013727462 33.713236448410726 15.90751278500587 H 0.0 **** 0.06
18999 H 41.197763091912876 33.76216355238921 17.306212477373307 H 0.0 **** 0.06
19000 H 42.373599699860904 32.43545016112853 17.14578657118308 H 0.0 **** 0.06
19001 C 76.03340404645297 92.35188490424912 132.6286795149523 C 0.0 **** -0.24
19002 H 76.44861611359539 93.28658133753494 133.00711102529436 H 0.0 **** 0.06
19003 H 74.95368847412647 92.34722054267739 132.77819334145443 H 0.0 **** 0.06
19004 H 76.47873163741707 91.51367966255727 133.16482704425783 H 0.0 **** 0.06
19005 H 76.25431610373727 92.26173670671383 131.56499674795361 H 0.0 **** 0.06
19006 C 83.5822715363193 120.72778840334848 109.25570765991901 C 0.0 **** -0.24
19007 H 82.55402746276964 120.40352069629955 109.09768736290636 H 0.0 **** 0.06
19008 H 83.87196744994435 121.41673728569972 108.4614107301237 H 0.0 **** 0.06
19009 H 84.24250447538766 119.86067312364304 109.24415739682769 H 0.0 **** 0.06
19010 H 83.66013804060607 121.23111000388425 110.21968019378554 H 0.0 **** 0.06
19011 C 149.46325455681006 150.72726407094805 6.5264495235572895 C 0.0 **** -0.24
19012 H 150.08927014627076 151.6158724468495 6.444355085887281 H 0.0 **** 0.06
19013 H 149.31997321711287 150.29142647272403 5.537182151856058 H 0.0 **** 0.06
19014 H 148.49465441404 151.00272704653443 6.946062237785384 H 0.0 **** 0.06
19015 H 149.9475609163188 150.0006623432814 7.177247551510646 H 0.0 **** 0.06
19016 C 85.72972118648448 110.5795859624512 18.716570080185193 C 0.0 **** -0.24
19017 H 84.89456908267968 110.7301416672959 18.03252052190689 H 0.0 **** 0.06
19018 H 85.47370417382774 109.80163024501559 19.436299242438025 H 0.0 **** 0.06
19019 H 85.93948412861022 111.50998949972524 19.244352824290104 H 0.0 **** 0.06
19020 H 86.61187032543796 110.27651090499498 18.15125219785395 H 0.0 **** 0.06
19021 C 47.524034552415884 51.51906764615805 140.3793087032682 C 0.0 **** -0.24
19022 H 48.46299850715195 52.062634730865284 140.2729913402232 H 0.0 **** 0.06
19023 H 47.65163359462595 50.49985629113641 140.01485356466551 H 0.0 **** 0.06
19024 H 46.74838045238428 52.018467886547 139.79952775734398 H 0.0 **** 0.06
19025 H 47.234717258181334 51.49652259317378 141.42988667489118 H 0.0 **** 0.06
19026 C 130.03518472825024 9.926693082181231 58.26768411249088 C 0.0 **** -0.24
19027 H 129.434418664584 9.987972798496855 57.35995243098364 H 0.0 **** 0.06
19028 H 130.8830604011698 10.606412876713165 58.187448974333904 H 0.0 **** 0.06
19029 H 130.39758973967852 8.90655947585961 58.39486465875359 H 0.0 **** 0.06
19030 H 129.42441896923506 10.205048579697234 59.126513700130715 H 0.0 **** 0.06
19031 C 39.1618401949014 157.82334893148587 161.8777806924801 C 0.0 **** -0.24
19032 H 38.16665624773083 158.13701081680193 162.19123875437947 H 0.0 **** 0.06
19033 H 39.745839935852416 157.5412506048274 162.75464997339498 H 0.0 **** 0.06
19034 H 39.65550116256588 158.646627148615 161.36160177303208 H 0.0 **** 0.06
19035 H 39.07871939366663 156.96944823987482 161.20555573583374 H 0.0 **** 0.06
19036 C 138.28510071847066 50.947167937375724 76.4130676698307 C 0.0 **** -0.24
19037 H 139.06762235648492 50.514798935675 75.79004698938252 H 0.0 **** 0.06
19038 H 137.33570985884623 50.455190973296396 76.19795708128501 H 0.0 **** 0.06
19039 H 138.19871254788885 52.01331477282321 76.20101132055984 H 0.0 **** 0.06
19040 H 138.5374317545933 50.80559891617074 77.46429844248598 H 0.0 **** 0.06
19041 C 0.7932738433314483 113.52573573872604 116.19024681897207 C 0.0 **** -0.24
19042 H 0.37317024809001254 112.84752385346565 116.93207457766272 H 0.0 **** 0.06
19043 H 1.642167337312145 113.04730635750636 115.70116805496716 H 0.0 **** 0.06
19044 H 1.1256774194320727 114.44049438091668 116.68174795587333 H 0.0 **** 0.06
19045 H 0.034044873320191016 113.76726761367567 115.44700557121368 H 0.0 **** 0.06
19046 C 158.73013549586526 80.21220789412129 108.07436314776712 C 0.0 **** -0.24
19047 H 159.8101540687192 80.09190058226892 107.99463320468823 H 0.0 **** 0.06
19048 H 158.23997908102058 79.60496078129576 107.31379791747176 H 0.0 **** 0.06
19049 H 158.46995960113085 81.2609675006766 107.92603347351888 H 0.0 **** 0.06
19050 H 158.40084181087985 79.89341408281166 109.06281092096779 H 0.0 **** 0.06
19051 C 48.174843796818976 20.774248777553737 155.6965445102769 C 0.0 **** -0.24
19052 H 48.977815686813585 20.673507410411844 154.9662451324946 H 0.0 **** 0.06
19053 H 47.898351467544884 21.824790261241674 155.7878924642774 H 0.0 **** 0.06
19054 H 48.514030215394584 20.40177516044423 156.66302980615504 H 0.0 **** 0.06
19055 H 47.30968208636622 20.198406409679478 155.36741589138563 H 0.0 **** 0.06
19056 C 115.97759058940414 20.763797534592186 33.722039668042655 C 0.0 **** -0.24
19057 H 115.16304293593237 21.479550021898746 33.82898978098525 H 0.0 **** 0.06
19058 H 115.62145976479746 19.88606409512272 33.18218439242182 H 0.0 **** 0.06
19059 H 116.33106551007955 20.46483052770725 34.70957098838903 H 0.0 **** 0.06
19060 H 116.7957865714261 21.22522558729696 33.168299322891954 H 0.0 **** 0.06
19061 C 62.66402276081162 9.093780761306618 94.66247123275929 C 0.0 **** -0.24
19062 H 62.29069128154883 10.027866930784342 94.2419578450029 H 0.0 **** 0.06
19063 H 63.08225089558873 8.478802629348138 93.86572285658923 H 0.0 **** 0.06
19064 H 61.84430670326945 8.559406502087654 95.14135279769852 H 0.0 **** 0.06
19065 H 63.437212054163936 9.311000613427893 95.39897356708644 H 0.0 **** 0.06
19066 C 109.59057605934515 95.33901104159617 71.97471445905207 C 0.0 **** -0.24
19067 H 108.8364805093471 95.92891416633472 71.45490004688189 H 0.0 **** 0.06
19068 H 110.49275315302265 95.93664922329651 72.10639194891 H 0.0 **** 0.06
19069 H 109.82510427563591 94.4505463563695 71.38791305049381 H 0.0 **** 0.06
19070 H 109.20813343447469 95.0389855641292 72.9499206851383 H 0.0 **** 0.06
19071 C 24.332283264503573 63.58247800081233 28.495636793908737 C 0.0 **** -0.24
19072 H 25.363975457422455 63.255878138337735 28.619598699860333 H 0.0 **** 0.06
19073 H 23.742552408796662 63.25865430777472 29.353472793607267 H 0.0 **** 0.06
19074 H 23.91908467031714 63.14555240506198 27.585542372448238 H 0.0 **** 0.06
19075 H 24.30166857878573 64.67011468714672 28.422356029488192 H 0.0 **** 0.06
19076 C 136.653595094889 152.28983394982257 146.54387636601615 C 0.0 **** -0.24
19077 H 137.16082555020057 151.34259734111043 146.7267066811824 H 0.0 **** 0.06
19078 H 137.0597204405318 152.75176422901077 145.64439848699766 H 0.0 **** 0.06
19079 H 136.8060682281493 152.95426389710718 147.39488616018016 H 0.0 **** 0.06
19080 H 135.58627165882672 152.10997597187105 146.41131062127852 H 0.0 **** 0.06
19081 C 16.767541863185215 124.91276770739103 56.381527359435836 C 0.0 **** -0.24
19082 H 16.79234381434631 125.88866744491565 56.86593773065442 H 0.0 **** 0.06
19083 H 17.77753119606146 124.50457527190161 56.33405774108411 H 0.0 **** 0.06
19084 H 16.3688738180972 125.0173262747856 55.37249259827399 H 0.0 **** 0.06
19085 H 16.129676568566254 124.23862605399472 56.955185640141735 H 0.0 **** 0.06
19086 C 60.064490737755335 52.9403659435512 137.76643099205012 C 0.0 **** -0.24
19087 H 59.615071620113326 53.92692387804287 137.64924403970298 H 0.0 **** 0.06
19088 H 59.432341195401705 52.19461111195395 137.28459124893106 H 0.0 **** 0.06
19089 H 60.156912474359444 52.707689790567386 138.82713211688383 H 0.0 **** 0.06
19090 H 61.05190887094332 52.93384636695545 137.30541063954246 H 0.0 **** 0.06
19091 C 59.22000771049956 66.88736378379616 144.7640162598864 C 0.0 **** -0.24
19092 H 59.25148949301759 65.84850328795102 144.4355552672993 H 0.0 **** 0.06
19093 H 58.95435001579412 67.52605954475361 143.92044194122724 H 0.0 **** 0.06
19094 H 60.19727253005162 67.17785188351915 145.14712843018668 H 0.0 **** 0.06
19095 H 58.47392606415919 66.9967338628744 145.55071455043088 H 0.0 **** 0.06
19096 C 124.00429391118917 51.846039663888774 68.25586939781162 C 0.0 **** -0.24
19097 H 124.85380998259262 52.26396977662348 67.71624016924432 H 0.0 **** 0.06
19098 H 123.07709208779744 52.21822623090647 67.81860079156634 H 0.0 **** 0.06
19099 H 124.05715995634972 52.142779951779545 69.30273672409604 H 0.0 **** 0.06
19100 H 124.0289523154679 50.7585061285622 68.18377472668675 H 0.0 **** 0.06
19101 C 16.67083133108804 96.92876842393048 4.073592803697203 C 0.0 **** -0.24
19102 H 17.254200543410207 97.41000865941919 3.289471631175502 H 0.0 **** 0.06
19103 H 16.053714804941933 97.67388284225859 4.576210520539377 H 0.0 **** 0.06
19104 H 17.34390834286245 96.46651240148526 4.795816846803525 H 0.0 **** 0.06
19105 H 16.03024396872138 96.16502769725224 3.6323334725397913 H 0.0 **** 0.06
19106 C 13.620322385058785 111.78315007228957 94.10792972750644 C 0.0 **** -0.24
19107 H 14.258866543406498 111.36421857042899 93.32880029257875 H 0.0 **** 0.06
19108 H 13.998505299742277 111.48430941718937 95.08620516903318 H 0.0 **** 0.06
19109 H 12.603469072911906 111.4119335754907 93.98077428828478 H 0.0 **** 0.06
19110 H 13.622913134560406 112.86995067682363 94.03308623135916 H 0.0 **** 0.06
19111 C 122.12097626271927 80.00976319435995 74.07645107888695 C 0.0 **** -0.24
19112 H 122.42638810183246 79.106292131852 74.6036782458849 H 0.0 **** 0.06
19113 H 121.03214372519236 80.04996370312563 74.02631598119632 H 0.0 **** 0.06
19114 H 122.53058639044727 79.99608742849219 73.06680591848503 H 0.0 **** 0.06
19115 H 122.49362548970612 80.88482627882838 74.60868035349779 H 0.0 **** 0.06
19116 C 84.58092986270992 42.37793660491005 71.41737602019623 C 0.0 **** -0.24
19117 H 84.59086554361545 42.91776558446624 70.47004775796847 H 0.0 **** 0.06
19118 H 85.22856954118495 41.50364552287179 71.3430870975779 H 0.0 **** 0.06
19119 H 83.56307919764814 42.05852168629032 71.64121969511964 H 0.0 **** 0.06
19120 H 84.94059701627089 43.03090977973655 72.21235426903445 H 0.0 **** 0.06
19121 C 28.07746479937316 43.07230017100163 8.311564938547917 C 0.0 **** -0.24
19122 H 27.619306204979523 42.7457744571976 7.37782540021896 H 0.0 **** 0.06
19123 H 27.308069247897862 43.466265595370615 8.976166028629919 H 0.0 **** 0.06
19124 H 28.811585638089724 43.85120255912648 8.103529980074434 H 0.0 **** 0.06
19125 H 28.57089810652559 42.225958072312096 8.78873834526842 H 0.0 **** 0.06
19126 C 2.1184356333791925 105.55153088213007 131.9578154053232 C 0.0 **** -0.24
19127 H 1.7934335863273816 105.61647639057622 132.99585422161124 H 0.0 **** 0.06
19128 H 1.9043643441967504 106.49273279768636 131.4508407397053 H 0.0 **** 0.06
19129 H 1.586117039049327 104.74048002981493 131.45981910299844 H 0.0 **** 0.06
19130 H 3.1898275639431404 105.35643431044272 131.92474755697793 H 0.0 **** 0.06
19131 C 64.96483667710544 79.07113927756069 51.63465311175082 C 0.0 **** -0.24
19132 H 65.78385702231203 78.45761634989964 52.0124099140516 H 0.0 **** 0.06
19133 H 64.33144558824887 79.38204746205983 52.46595131907563 H 0.0 **** 0.06
19134 H 64.3751828135905 78.49203067344904 50.92543005795494 H 0.0 **** 0.06
19135 H 65.37112474828234 79.95166960769073 51.13755133234076 H 0.0 **** 0.06
19136 C 14.045183496808193 135.1276716142798 103.0923533619231 C 0.0 **** -0.24
19137 H 13.419724210627152 135.26721952763378 103.97313929928825 H 0.0 **** 0.06
19138 H 13.59247866216657 135.63801237726398 102.24112568917957 H 0.0 **** 0.06
19139 H 14.131990838140126 134.06283021590139 102.873430600765 H 0.0 **** 0.06
19140 H 15.035453873769796 135.5417398969532 103.27997497365249 H 0.0 **** 0.06
19141 C 154.38531961748663 60.33979137566719 95.03824843921032 C 0.0 **** -0.24
19142 H 154.09243813469425 60.92995539065561 95.90677520201228 H 0.0 **** 0.06
19143 H 155.1868917975349 59.65586499742966 95.31824955078642 H 0.0 **** 0.06
19144 H 154.73414725217114 61.005063873976226 94.24846198830824 H 0.0 **** 0.06
19145 H 153.52763579971378 59.76879121122721 94.6808156809958 H 0.0 **** 0.06
19146 C 147.31125522165073 64.92749097022079 116.88205579993542 C 0.0 **** -0.24
19147 H 147.84036265329198 65.81712583466958 116.54002656390651 H 0.0 **** 0.06
19148 H 147.66448276067956 64.05865280561602 116.3255142973436 H 0.0 **** 0.06
19149 H 146.2412246773905 65.05528920169382 116.71525012538007 H 0.0 **** 0.06
19150 H 147.49833742087333 64.77998816764023 117.94532716969411 H 0.0 **** 0.06
19151 C 4.788829517339458 88.55005216956319 102.04019819953908 C 0.0 **** -0.24
19152 H 3.837020852781663 88.3123336003232 102.51588929975222 H 0.0 **** 0.06
19153 H 4.6251388699705345 89.27214098977943 101.24027947690186 H 0.0 **** 0.06
19154 H 5.224703506576631 87.6406846954251 101.62576782412106 H 0.0 **** 0.06
19155 H 5.468805643362721 88.97416459459338 102.7799022039047 H 0.0 **** 0.06
19156 C 138.75903854484307 147.70323127959628 127.74008786367406 C 0.0 **** -0.24
19157 H 139.7004911178413 148.24850270462153 127.81583098643344 H 0.0 **** 0.06
19158 H 138.07263447280388 148.25211608223023 127.09651445352193 H 0.0 **** 0.06
19159 H 138.32134659322207 147.5970426020712 128.7330750737872 H 0.0 **** 0.06
19160 H 138.9449294047334 146.71543209726778 127.3174659949263 H 0.0 **** 0.06
19161 C 109.96508301122256 14.4376560165245 14.65149147339254 C 0.0 **** -0.24
19162 H 110.82811266961977 14.783065998983375 14.081783981305804 H 0.0 **** 0.06
19163 H 109.07313091959296 14.964844555955608 14.313758516794287 H 0.0 **** 0.06
19164 H 110.12601747336834 14.635873365181169 15.710553227139577 H 0.0 **** 0.06
19165 H 109.83478743346123 13.365929581046828 14.497584355877464 H 0.0 **** 0.06
19166 C 68.85938639695112 12.649561546683543 49.37633891875937 C 0.0 **** -0.24
19167 H 68.19788515601044 13.45662521167958 49.06091346854417 H 0.0 **** 0.06
19168 H 69.30168187218511 12.898445805951667 50.34096744478329 H 0.0 **** 0.06
19169 H 69.64941834529671 12.519472027474933 48.636313843601485 H 0.0 **** 0.06
19170 H 68.28776172457908 11.726100078374458 49.46458846777497 H 0.0 **** 0.06
19171 C 17.835820794940872 1.8439269069904185 58.85376268236212 C 0.0 **** -0.24
19172 H 16.87947573608335 2.1530030101259854 59.27644337427972 H 0.0 **** 0.06
19173 H 18.6423682558069 2.384936908919485 59.348555795631285 H 0.0 **** 0.06
19174 H 17.848809030924457 2.065785515757568 57.786908004698006 H 0.0 **** 0.06
19175 H 17.96924887585112 0.7730669650044888 59.003768535255915 H 0.0 **** 0.06
19176 C 100.60371481997419 159.15193509644496 43.04438787803676 C 0.0 **** -0.24
19177 H 101.64873181249061 159.38303366414345 42.837898669242264 H 0.0 **** 0.06
19178 H 100.44449824971178 158.07686391522773 42.95309748416514 H 0.0 **** 0.06
19179 H 99.9684854098773 159.67510686675172 42.329176880625894 H 0.0 **** 0.06
19180 H 100.35381750535868 159.47324809066146 44.055079779775056 H 0.0 **** 0.06
19181 C 127.33293125483735 26.113321535945744 64.8257203855288 C 0.0 **** -0.24
19182 H 128.190354321579 25.664506258870404 65.32733616616508 H 0.0 **** 0.06
19183 H 127.56839441720138 27.142538390604386 64.55529181102084 H 0.0 **** 0.06
19184 H 126.4735531137263 26.100505339491065 65.49629463162216 H 0.0 **** 0.06
19185 H 127.0995035413838 25.544794763834716 63.925985623676155 H 0.0 **** 0.06
19186 C 80.90183813608499 118.39254276404802 148.4879380160749 C 0.0 **** -0.24
19187 H 81.8937875144844 118.83279603176868 148.39192075838173 H 0.0 **** 0.06
19188 H 80.86581896518345 117.77110126185477 149.38323626976876 H 0.0 **** 0.06
19189 H 80.69032453684291 117.7798606519803 147.6111669483442 H 0.0 **** 0.06
19190 H 80.15860085013081 119.18582289636981 148.56491729778463 H 0.0 **** 0.06
19191 C 8.741264571834733 28.408768969358164 78.64015016952406 C 0.0 **** -0.24
19192 H 8.024582524115345 29.1134142453557 79.06007121543573 H 0.0 **** 0.06
19193 H 8.650260413332461 27.449845809238667 79.15233620391851 H 0.0 **** 0.06
19194 H 9.751244113435916 28.795979764807555 78.7708366270744 H 0.0 **** 0.06
19195 H 8.53880650367438 28.27373003072458 77.57808988673655 H 0.0 **** 0.06
19196 C 84.16599178122888 69.09085473609207 154.51693771400647 C 0.0 **** -0.24
19197 H 84.77812508114933 69.07468582479123 153.6159781128418 H 0.0 **** 0.06
19198 H 83.81854310896888 70.10739079737368 154.7030068673936 H 0.0 **** 0.06
19199 H 84.7581307686407 68.74861002231324 155.3656224782633 H 0.0 **** 0.06
19200 H 83.30731769045659 68.43158043346779 154.38426103991657 H 0.0 **** 0.06
19201 C 7.067616942995471 11.786070846485941 105.2983886800254 C 0.0 **** -0.24
19202 H 7.543443518043176 11.124144227121654 104.5752282141822 H 0.0 **** 0.06
19203 H 7.251900092187441 11.414963002752188 106.30743159183129 H 0.0 **** 0.06
19204 H 5.9940523139808874 11.81616225262433 105.11199030774316 H 0.0 **** 0.06
19205 H 7.481874140643072 12.789244314319788 105.19945530331742 H 0.0 **** 0.06
19206 C 146.9334545500041 140.7463661639522 15.978139258943486 C 0.0 **** -0.24
19207 H 147.773300380766 140.05905460235826 15.87642567476854 H 0.0 **** 0.06
19208 H 146.0736818108778 140.35215479115797 15.436711446515545 H 0.0 **** 0.06
19209 H 147.20743169441172 141.71781423466462 15.56787959050601 H 0.0 **** 0.06
19210 H 146.68036484775277 140.8567727831873 17.032942965642917 H 0.0 **** 0.06
19211 C 91.04880587534856 11.132205464408372 109.67464694104106 C 0.0 **** -0.24
19212 H 90.1757724917785 10.734367127341955 109.15706483911342 H 0.0 **** 0.06
19213 H 91.4076676872416 10.398892894145433 110.39788187887714 H 0.0 **** 0.06
19214 H 90.77541928559424 12.051309232851253 110.19290642311694 H 0.0 **** 0.06
19215 H 91.83606850228813 11.34358241538186 108.95005378702228 H 0.0 **** 0.06
19216 C 54.762593826510866 81.0244147281768 49.13561804776873 C 0.0 **** -0.24
19217 H 54.37503257479766 81.03061965544924 50.15490194518907 H 0.0 **** 0.06
19218 H 54.09403314642658 81.59451975259174 48.489902352256195 H 0.0 **** 0.06
19219 H 54.825446863093276 79.99713271293135 48.77811282869163 H 0.0 **** 0.06
19220 H 55.75481139667839 81.47506765278041 49.122161423971875 H 0.0 **** 0.06
19221 C 21.62950540809696 14.688000722387187 41.72966683432054 C 0.0 **** -0.24
19222 H 20.79649845885792 14.008572564648034 41.910726667097435 H 0.0 **** 0.06
19223 H 21.451163565202982 15.243848776282675 40.80952284346256 H 0.0 **** 0.06
19224 H 22.55202382454202 14.11362009546525 41.63523921128245 H 0.0 **** 0.06
19225 H 21.71925831669158 15.383764769654192 42.56374755807528 H 0.0 **** 0.06
19226 C 91.05922507525044 34.389655657264655 117.07100727599976 C 0.0 **** -0.24
19227 H 90.4487873984492 34.68608924403311 116.21840548899397 H 0.0 **** 0.06
19228 H 90.46670307052086 33.767412482048215 117.74242963944275 H 0.0 **** 0.06
19229 H 91.39808807227406 35.27823794572846 117.60330722072197 H 0.0 **** 0.06
19230 H 91.92286850833119 33.824998283939095 116.72037939099403 H 0.0 **** 0.06
19231 C 129.57081739879948 12.785755797653273 139.36255080305764 C 0.0 **** -0.24
19232 H 130.09586847045244 12.684255424183455 138.41243664137653 H 0.0 **** 0.06
19233 H 128.85198109355534 11.972484544724757 139.46805021751354 H 0.0 **** 0.06
19234 H 129.0441364655901 13.74048701120693 139.38628688496047 H 0.0 **** 0.06
19235 H 130.2886732820304 12.745501353488251 140.18076490433538 H 0.0 **** 0.06
19236 C 140.31426453856557 86.95898892601285 34.53234238214654 C 0.0 **** -0.24
19237 H 139.56396122106108 86.64257339764612 33.807839796018825 H 0.0 **** 0.06
19238 H 141.24980816458654 86.43359192379698 34.33942275679962 H 0.0 **** 0.06
19239 H 139.96766392805733 86.72457428260476 35.53933527103989 H 0.0 **** 0.06
19240 H 140.47522299563383 88.03312707292164 34.444635766944685 H 0.0 **** 0.06
19241 C 117.64839143163462 54.32899771377714 111.13922224003036 C 0.0 **** -0.24
19242 H 117.69684522616777 54.71249561621653 110.11988056237502 H 0.0 **** 0.06
19243 H 117.00914421853528 53.44546047531813 111.16525799548776 H 0.0 **** 0.06
19244 H 117.23758956022712 55.09475491265327 111.7960140966409 H 0.0 **** 0.06
19245 H 118.65041160162355 54.061906702707645 111.47402338651304 H 0.0 **** 0.06
19246 C 41.32474151564118 8.34635120256769 89.59673065640351 C 0.0 **** -0.24
19247 H 40.62460936764745 7.520409260298379 89.47677775497357 H 0.0 **** 0.06
19248 H 41.35563400740823 8.932217739013424 88.6777812953263 H 0.0 **** 0.06
19249 H 42.31848241620132 7.951401668769108 89.8099506610236 H 0.0 **** 0.06
19250 H 41.00115657716552 8.980346196045446 90.42209723268707 H 0.0 **** 0.06
19251 C 77.02592945835401 131.59400761218689 149.67018341530866 C 0.0 **** -0.24
19252 H 77.6334932514128 131.86889123771414 150.53281085944565 H 0.0 **** 0.06
19253 H 76.69981875930138 130.5581560864245 149.7712394794881 H 0.0 **** 0.06
19254 H 77.61711421439156 131.70169997016492 148.76141074745118 H 0.0 **** 0.06
19255 H 76.15460547579691 132.246393790975 149.61684830824998 H 0.0 **** 0.06
19256 C 28.010015239640687 99.82775321201495 77.77728010563851 C 0.0 **** -0.24
19257 H 28.36767504614786 99.71366240233226 78.80073680471139 H 0.0 **** 0.06
19258 H 26.939309043452575 99.62891555564312 77.74250000700528 H 0.0 **** 0.06
19259 H 28.532100400834942 99.1236606085219 77.12996370463543 H 0.0 **** 0.06
19260 H 28.202546031479145 100.8451224908141 77.4377679869045 H 0.0 **** 0.06
19261 C 88.65040643903727 88.46375830241016 143.93125413961246 C 0.0 **** -0.24
19262 H 87.60293554707008 88.72494692825778 144.07695947285194 H 0.0 **** 0.06
19263 H 89.0756061178454 88.12090564913849 144.87518326020225 H 0.0 **** 0.06
19264 H 89.19850090779691 89.33926715016752 143.5823794015509 H 0.0 **** 0.06
19265 H 88.72591835457945 87.66872248451243 143.18915315812833 H 0.0 **** 0.06
19266 C 38.492757002787215 16.49717488201611 142.00865502934607 C 0.0 **** -0.24
19267 H 37.413611151122396 16.479796407483036 142.1617696314948 H 0.0 **** 0.06
19268 H 38.75144202832921 17.317846360803856 141.3391169382413 H 0.0 **** 0.06
19269 H 38.81161972050805 15.5527395665288 141.56719226687193 H 0.0 **** 0.06
19270 H 38.993240098931395 16.637006302885283 142.96634530970726 H 0.0 **** 0.06
19271 C 152.8816128468509 119.45731154227553 130.76401097977399 C 0.0 **** -0.24
19272 H 153.59038643084887 120.06098664137193 130.19825643950648 H 0.0 **** 0.06
19273 H 152.16440926305302 120.11048708046033 131.26175650889851 H 0.0 **** 0.06
19274 H 153.41793001891568 118.8716171632816 131.51075581390268 H 0.0 **** 0.06
19275 H 152.35416965556593 118.78656280370814 130.08689900995486 H 0.0 **** 0.06
19276 C 52.47024790008106 57.37025948034936 46.36916391607923 C 0.0 **** -0.24
19277 H 52.565737250590445 56.67628279648849 47.20447883471235 H 0.0 **** 0.06
19278 H 53.34476652157599 58.020550318124734 46.33553530198395 H 0.0 **** 0.06
19279 H 51.57238932838345 57.97407075750175 46.50009052151279 H 0.0 **** 0.06
19280 H 52.39793739077177 56.809555485669605 45.4373505923852 H 0.0 **** 0.06
19281 C 17.622533460028592 100.09947536821204 37.7582539664366 C 0.0 **** -0.24
19282 H 17.092067101341627 100.89565099958696 38.281813611108305 H 0.0 **** 0.06
19283 H 18.46765013081017 99.76857605117428 38.3636367991283 H 0.0 **** 0.06
19284 H 17.98515395193914 100.47297062822247 36.800879165689 H 0.0 **** 0.06
19285 H 16.945814077492457 99.26247640732205 37.589611035631265 H 0.0 **** 0.06
19286 C 27.50800526420437 49.80832211248736 136.85253555166116 C 0.0 **** -0.24
19287 H 26.850493796704654 50.16686215732001 136.06154281138197 H 0.0 **** 0.06
19288 H 28.404139522296532 50.428742586738494 136.88982792004145 H 0.0 **** 0.06
19289 H 27.78970698774657 48.774239071436114 136.6494042770796 H 0.0 **** 0.06
19290 H 26.988667262629917 49.862023087177946 137.80944521639765 H 0.0 **** 0.06
19291 C 9.049404624609053 114.17807280854109 125.84818030196189 C 0.0 **** -0.24
19292 H 10.094635584381763 114.09509323878493 126.1465031075358 H 0.0 **** 0.06
19293 H 8.954188670574467 114.92939119439973 125.06331502368914 H 0.0 **** 0.06
19294 H 8.44836502133029 114.47158753818445 126.70795021854474 H 0.0 **** 0.06
19295 H 8.701978033718035 113.21568060254515 125.47343260192795 H 0.0 **** 0.06
19296 C 79.50366386941093 143.70663445182512 32.72333695152662 C 0.0 **** -0.24
19297 H 79.60401068175108 144.76566873579938 32.95788697669015 H 0.0 **** 0.06
19298 H 80.03831725013856 143.48732203382417 31.79933225961802 H 0.0 **** 0.06
19299 H 78.44878512065674 143.46023900045603 32.599704500776284 H 0.0 **** 0.06
19300 H 79.92232930468313 143.11256427156394 33.53543652558098 H 0.0 **** 0.06
19301 C 54.08517512636088 13.93946950436191 102.65878167657061 C 0.0 **** -0.24
19302 H 54.75837530256389 13.466765382246024 101.94422155614811 H 0.0 **** 0.06
19303 H 54.4735320490916 14.922229283967226 102.92780212088388 H 0.0 **** 0.06
19304 H 54.01224083657115 13.320636678501614 103.55262302293528 H 0.0 **** 0.06
19305 H 53.09761101650237 14.049298269427254 102.20960057993719 H 0.0 **** 0.06
19306 C 118.46176077360622 9.465000938321964 55.493920124451066 C 0.0 **** -0.24
19307 H 118.78502927713191 10.283248056581726 54.85162195538041 H 0.0 **** 0.06
19308 H 117.93115276736995 9.867144594282593 56.356169182682535 H 0.0 **** 0.06
19309 H 119.3325970961697 8.902304153382062 55.831926511260335 H 0.0 **** 0.06
19310 H 117.79831199508851 8.804835391315322 54.93426303494513 H 0.0 **** 0.06
19311 C 49.74952499018241 83.23893814415439 83.54787540474487 C 0.0 **** -0.24
19312 H 48.898946268879115 82.99400391860117 82.9121090112792 H 0.0 **** 0.06
19313 H 50.14685701049973 82.32531394586802 83.9901252750628 H 0.0 **** 0.06
19314 H 49.42709202780151 83.91583547629963 84.33947938601764 H 0.0 **** 0.06
19315 H 50.52221071702229 83.72151751528068 82.95022772924487 H 0.0 **** 0.06
19316 C 154.36291929880161 41.98580496975973 100.02347823443921 C 0.0 **** -0.24
19317 H 154.6583832380672 40.94429816377783 100.14332579673601 H 0.0 **** 0.06
19318 H 153.45594111342572 42.0389052707921 99.42061854236431 H 0.0 **** 0.06
19319 H 155.16240266058097 42.53610487550554 99.52758689741262 H 0.0 **** 0.06
19320 H 154.17378040721337 42.424407778071384 101.00300255644459 H 0.0 **** 0.06
19321 C 65.54460740465127 108.05791158014227 24.20615211901429 C 0.0 **** -0.24
19322 H 64.98803758383568 108.9335208384968 23.870190284484323 H 0.0 **** 0.06
19323 H 64.84746592435155 107.2506140051093 24.431161553542836 H 0.0 **** 0.06
19324 H 66.11159095463391 108.31000941604239 25.102162266120672 H 0.0 **** 0.06
19325 H 66.2291754596786 107.73861850432644 23.42079529343249 H 0.0 **** 0.06
19326 C 44.63712367755291 4.024699388653801 18.59841713508706 C 0.0 **** -0.24
19327 H 44.45062788865759 2.9688521461063146 18.40130095741577 H 0.0 **** 0.06
19328 H 44.04808183732838 4.631839503295566 17.910363739725312 H 0.0 **** 0.06
19329 H 45.69611256493867 4.238775723697302 18.457145449418874 H 0.0 **** 0.06
19330 H 44.35252492214859 4.258687034984632 19.623351830289266 H 0.0 **** 0.06
19331 C 1.8117718936189746 76.05517744169626 33.81997918239415 C 0.0 **** -0.24
19332 H 0.8131430081296287 76.32772543804265 33.47851498837315 H 0.0 **** 0.06
19333 H 2.493067317513521 76.89013492349537 33.65495064411391 H 0.0 **** 0.06
19334 H 2.1599556141416016 75.1847317661618 33.26328061018148 H 0.0 **** 0.06
19335 H 1.7783815221465957 75.81687577398094 34.883246911795254 H 0.0 **** 0.06
19336 C 11.412538385415928 7.990104670004882 12.113779711896115 C 0.0 **** -0.24
19337 H 11.40177387317459 8.501256785877757 11.150684430496248 H 0.0 **** 0.06
19338 H 10.814445609898712 7.080837819522799 12.049860259300765 H 0.0 **** 0.06
19339 H 10.996637784855153 8.645797383788022 12.877998644063481 H 0.0 **** 0.06
19340 H 12.439504732480998 7.732948270542977 12.375603319507206 H 0.0 **** 0.06
19341 C 28.816721768773732 25.6935479234927 83.37946138515858 C 0.0 **** -0.24
19342 H 29.242058821945932 26.678200764576076 83.57646154925095 H 0.0 **** 0.06
19343 H 29.537383504685977 25.090776943416664 82.8267058627251 H 0.0 **** 0.06
19344 H 27.905110648294283 25.802762098183223 82.79217757147862 H 0.0 **** 0.06
19345 H 28.582548021680736 25.204016394434454 84.32541721426284 H 0.0 **** 0.06
19346 C 73.72541233808971 137.23323030107113 42.496684595626334 C 0.0 **** -0.24
19347 H 73.2709079905207 136.43002923252368 41.91521168208571 H 0.0 **** 0.06
19348 H 73.99259467568842 136.8588724006482 43.4858709656543 H 0.0 **** 0.06
19349 H 73.01439382078314 138.05357947663086 42.598845155076816 H 0.0 **** 0.06
19350 H 74.62122006923937 137.58866867794785 41.9874794063043 H 0.0 **** 0.06
19351 C 74.78317297813453 54.49611947661214 67.26772853337576 C 0.0 **** -0.24
19352 H 75.82294003237848 54.821546296514384 67.31804510516184 H 0.0 **** 0.06
19353 H 74.12728476608038 55.36419762794378 67.3403705339947 H 0.0 **** 0.06
19354 H 74.5769087337627 53.81339587009944 68.0912625989551 H 0.0 **** 0.06
19355 H 74.60843630789657 53.98625358057171 66.32029794457225 H 0.0 **** 0.06
19356 C 80.21712450735406 97.88151390491589 30.667375518819995 C 0.0 **** -0.24
19357 H 79.65444292751434 96.94796263526422 30.679717639424837 H 0.0 **** 0.06
19358 H 81.07982533963545 97.77709146372717 30.00891587503952 H 0.0 **** 0.06
19359 H 80.55569333425287 98.11381838490524 31.676899477322536 H 0.0 **** 0.06
19360 H 79.57814428134742 98.68640840276692 30.304465107636872 H 0.0 **** 0.06
19361 C 118.39873463092886 16.334582866296046 103.92612598517104 C 0.0 **** -0.24
19362 H 117.57980776742181 16.931063165468174 104.32768655111107 H 0.0 **** 0.06
19363 H 118.41384153353283 16.425814005250402 102.83934838004524 H 0.0 **** 0.06
19364 H 118.25593560542495 15.289818501505067 104.20116907326926 H 0.0 **** 0.06
19365 H 119.34289875449929 16.693265116122518 104.33399355879425 H 0.0 **** 0.06
19366 C 79.68652033824601 155.96934086514582 19.477208831682397 C 0.0 **** -0.24
19367 H 79.6096908648165 156.47915093266394 20.438301348249034 H 0.0 **** 0.06
19368 H 80.34641314959279 156.53417363066643 18.81814411306094 H 0.0 **** 0.06
19369 H 78.69729734799677 155.89519815714002 19.0262525480395 H 0.0 **** 0.06
19370 H 80.0931648812191 154.96975282457547 19.629733621805364 H 0.0 **** 0.06
19371 C 94.85810818712703 19.03197644540117 27.822852129397923 C 0.0 **** -0.24
19372 H 94.31705373496361 19.00201561936069 26.877489097610365 H 0.0 **** 0.06
19373 H 95.36734789882448 18.08112659488674 27.980174525743593 H 0.0 **** 0.06
19374 H 94.15632345396591 19.208302371688433 28.63751781966633 H 0.0 **** 0.06
19375 H 95.5915977440639 19.838375586201636 27.794702867141332 H 0.0 **** 0.06
19376 C 95.81640251096633 87.30061770857591 107.80792736952472 C 0.0 **** -0.24
19377 H 96.64166329844409 87.4038172569713 108.51259704155567 H 0.0 **** 0.06
19378 H 96.01707962216682 86.4679483376857 107.13472291852355 H 0.0 **** 0.06
19379 H 95.71578773538522 88.21946379601053 107.23088112461036 H 0.0 **** 0.06
19380 H 94.89335423553541 87.11117820409022 108.35570415538552 H 0.0 **** 0.06
19381 C 116.3075640520118 6.7960351606461415 30.05039520288034 C 0.0 **** -0.24
19382 H 115.42596003144305 7.139409472533885 30.592843658847386 H 0.0 **** 0.06
19383 H 116.55781045542292 7.517023366699391 29.270887884200448 H 0.0 **** 0.06
19384 H 116.09855083035058 5.827796830070525 29.59645045051809 H 0.0 **** 0.06
19385 H 117.14429650699742 6.70066215962197 30.741844132097867 H 0.0 **** 0.06
19386 C 135.94503992958326 123.67927849042061 115.79747012771188 C 0.0 **** -0.24
19387 H 136.27942435520686 124.57403787699164 116.3226153975618 H 0.0 **** 0.06
19388 H 134.8967306649179 123.79211473749214 115.52006511867705 H 0.0 **** 0.06
19389 H 136.0585854011391 122.81201761483234 116.4472484203828 H 0.0 **** 0.06
19390 H 136.54617051081857 123.5406254218482 114.89868360368604 H 0.0 **** 0.06
19391 C 127.84647590432715 87.47960074597796 157.67796318932224 C 0.0 **** -0.24
19392 H 127.31378834579564 87.67907856716533 156.74795865684825 H 0.0 **** 0.06
19393 H 127.17935586504723 86.97535728481733 158.37761043082673 H 0.0 **** 0.06
19394 H 128.1840185527397 88.42155242242268 158.11047892424477 H 0.0 **** 0.06
19395 H 128.70762902338478 86.84423927834672 157.47307799932292 H 0.0 **** 0.06
19396 C 9.469191139455262 141.14495634240456 159.55451550996875 C 0.0 **** -0.24
19397 H 9.952787466978293 140.2373575293509 159.91714875815205 H 0.0 **** 0.06
19398 H 9.852576621045642 141.3886750526974 158.56390882410818 H 0.0 **** 0.06
19399 H 9.681354494442274 141.96702270472838 160.2385319426875 H 0.0 **** 0.06
19400 H 8.393140116467691 140.98603702589205 159.4998470259108 H 0.0 **** 0.06
19401 C 13.954031139094347 27.131143383898667 71.50851931358551 C 0.0 **** -0.24
19402 H 13.769298066480403 27.849632897901557 72.30604819385417 H 0.0 **** 0.06
19403 H 13.774190199595417 27.604772005100536 70.54376338538212 H 0.0 **** 0.06
19404 H 13.284465487264832 26.277833638575032 71.6250921704747 H 0.0 **** 0.06
19405 H 14.988408564091685 26.789535242552176 71.55884930892681 H 0.0 **** 0.06
19406 C 34.025930777323936 76.50782461272274 118.63447982533776 C 0.0 **** -0.24
19407 H 34.13412678442472 75.4274095465837 118.54486547060878 H 0.0 **** 0.06
19408 H 33.57818566146818 76.7490130896087 119.59857799807676 H 0.0 **** 0.06
19409 H 33.385707347979974 76.87669485382088 117.83415457117158 H 0.0 **** 0.06
19410 H 35.0068534663028 76.9781834546483 118.561144187429 H 0.0 **** 0.06
19411 C 33.55594339764036 79.38908340097778 125.76178274437854 C 0.0 **** -0.24
19412 H 34.54231905908853 79.39929879277979 126.22524746611455 H 0.0 **** 0.06
19413 H 33.149872631808876 80.4005821358908 125.74967075212408 H 0.0 **** 0.06
19414 H 32.89268686860282 78.73896189267867 126.33393719218313 H 0.0 **** 0.06
19415 H 33.63788224439662 79.01650997289184 124.74159410109158 H 0.0 **** 0.06
19416 C 123.12914396949907 151.81604671906373 87.41767320815525 C 0.0 **** -0.24
19417 H 123.21893376228749 152.88799889937346 87.59498137667642 H 0.0 **** 0.06
19418 H 123.70692110630787 151.54515107938857 86.53292406544642 H 0.0 **** 0.06
19419 H 122.08143685367347 151.56135089293434 87.25994346622636 H 0.0 **** 0.06
19420 H 123.51013007370241 151.2721497256872 88.28135571306387 H 0.0 **** 0.06
19421 C 64.23404956537104 21.709230945404755 104.61333525924957 C 0.0 **** -0.24
19422 H 63.39538205316654 22.00487006134503 105.24438850574941 H 0.0 **** 0.06
19423 H 65.0727509752835 21.40918123079294 105.24216670973598 H 0.0 **** 0.06
19424 H 64.53183656277389 22.55080462611386 103.98709686209278 H 0.0 **** 0.06
19425 H 63.936075516429355 20.872465929723603 103.98103734639716 H 0.0 **** 0.06
19426 C 106.94193137374774 79.70144254434136 96.41334828852473 C 0.0 **** -0.24
19427 H 106.78449328962512 79.22560670920817 95.4448843529218 H 0.0 **** 0.06
19428 H 107.25094020574812 80.73627826514316 96.26359699613988 H 0.0 **** 0.06
19429 H 107.71694954970337 79.16500497112676 96.96019963364051 H 0.0 **** 0.06
19430 H 106.0134536426257 79.67795941958325 96.98394753904859 H 0.0 **** 0.06
19431 C 154.03537752355345 140.29308265663943 125.21592713360423 C 0.0 **** -0.24
19432 H 153.80475456758575 139.58695425395865 124.41765298552161 H 0.0 **** 0.06
19433 H 155.06660837409814 140.6314118361055 125.11391653914052 H 0.0 **** 0.06
19434 H 153.90671869515123 139.80449927712976 126.18140526505306 H 0.0 **** 0.06
19435 H 153.36394113372435 141.14898923904062 125.14950466863525 H 0.0 **** 0.06
19436 C 49.35143784521874 42.795570739082166 116.92290669021713 C 0.0 **** -0.24
19437 H 48.782082411995745 42.750436168703715 117.85116425682378 H 0.0 **** 0.06
19438 H 49.37649026382317 43.82395656817641 116.5615635859246 H 0.0 **** 0.06
19439 H 48.87752142428265 42.159417171005 116.17540905286461 H 0.0 **** 0.06
19440 H 50.36832379278701 42.448918508038446 117.10333677737339 H 0.0 **** 0.06
19441 C 60.047390245595466 135.13123213262094 20.976331529001953 C 0.0 **** -0.24
19442 H 59.38408486671682 135.72466081868873 20.34685696010405 H 0.0 **** 0.06
19443 H 60.38538561458324 135.73546088076404 21.81855692859068 H 0.0 **** 0.06
19444 H 60.908966219652314 134.80697810803974 20.392078120269048 H 0.0 **** 0.06
19445 H 59.511124281429545 134.25782872299135 21.347834107044093 H 0.0 **** 0.06
19446 C 77.46530101809554 32.333715187715555 130.09954287312996 C 0.0 **** -0.24
19447 H 78.54539777830303 32.328581525866504 130.24613922618187 H 0.0 **** 0.06
19448 H 77.23765312196377 32.655949700057434 129.08330362011685 H 0.0 **** 0.06
19449 H 77.00588949821434 33.02001191813396 130.81011424538792 H 0.0 **** 0.06
19450 H 77.07304537353116 31.329397658315806 130.25935108314434 H 0.0 **** 0.06
19451 C 10.404766072777733 146.47899703914646 127.55590393392148 C 0.0 **** -0.24
19452 H 10.238949255740579 145.51674306365527 127.07047427377395 H 0.0 **** 0.06
19453 H 9.460511234341169 146.85395446888546 127.95077680316726 H 0.0 **** 0.06
19454 H 10.803050287717582 147.18798263322128 126.829742118269 H 0.0 **** 0.06
19455 H 11.116729588570138 146.35515628288243 128.37146524556164 H 0.0 **** 0.06
19456 C 130.8489472911891 24.59987492618594 8.21551724547274 C 0.0 **** -0.24
19457 H 131.51075279342206 24.782477695282083 7.36900288868523 H 0.0 **** 0.06
19458 H 131.22858626726617 25.124510796444085 9.092882242863368 H 0.0 **** 0.06
19459 H 130.80696028488967 23.530035841210655 8.42124107911016 H 0.0 **** 0.06
19460 H 129.8494256609327 24.964653369650698 7.979445125701005 H 0.0 **** 0.06
19461 C 59.73301482001793 21.241108403514318 46.00119680094838 C 0.0 **** -0.24
19462 H 58.73431455964288 21.655361639364173 46.14321769689889 H 0.0 **** 0.06
19463 H 59.70017697423046 20.16079518646086 46.14200120851402 H 0.0 **** 0.06
19464 H 60.41548609184177 21.682612708057377 46.72695416221298 H 0.0 **** 0.06
19465 H 60.07858962108959 21.46619211640308 44.991887999991846 H 0.0 **** 0.06
19466 C 101.47418413090614 17.05994334148903 56.641105200662224 C 0.0 **** -0.24
19467 H 100.77371030138178 16.407308492843526 57.161224412714475 H 0.0 **** 0.06
19468 H 101.2675718529562 18.097708851417565 56.90407856432614 H 0.0 **** 0.06
19469 H 101.36303346911302 16.928694856285063 55.56511068461394 H 0.0 **** 0.06
19470 H 102.49321196248019 16.80698068908407 56.93473429778609 H 0.0 **** 0.06
19471 C 15.483965520353792 83.08255907342313 63.53989268584495 C 0.0 **** -0.24
19472 H 14.903687372888783 82.16233635049956 63.47110843926863 H 0.0 **** 0.06
19473 H 15.981430016345001 83.27066455303108 62.58821034739944 H 0.0 **** 0.06
19474 H 16.231585699060673 82.98131946195257 64.32698066262662 H 0.0 **** 0.06
19475 H 14.819800767892644 83.91396403454759 63.77460486723891 H 0.0 **** 0.06
19476 C 80.75571714919465 68.08775536886051 144.71249021397588 C 0.0 **** -0.24
19477 H 81.31025260825784 67.55128212771456 145.48290163948687 H 0.0 **** 0.06
19478 H 79.71513238674953 67.76225058903408 144.72090856762762 H 0.0 **** 0.06
19479 H 81.19563099576045 67.87890289437517 143.7374962155397 H 0.0 **** 0.06
19480 H 80.80289268698519 69.15862396232761 144.91063355704756 H 0.0 **** 0.06
19481 C 37.52237386726557 21.200296053802077 45.181273662062296 C 0.0 **** -0.24
19482 H 37.536454457992875 20.96784980257948 44.11630589648125 H 0.0 **** 0.06
19483 H 38.53590134137602 21.1437176724628 45.578989411598656 H 0.0 **** 0.06
19484 H 36.886824877889126 20.483760058055537 45.70133086648026 H 0.0 **** 0.06
19485 H 37.12979545777716 22.2064755114979 45.32730769691588 H 0.0 **** 0.06
19486 C 114.31704679690085 13.858476218588322 132.02877040275754 C 0.0 **** -0.24
19487 H 113.98772904319375 13.254319389018967 132.87363854205722 H 0.0 **** 0.06
19488 H 115.34489480194298 13.596665537427498 131.77474374030075 H 0.0 **** 0.06
19489 H 114.2653146673654 14.914350333876548 132.29388073286017 H 0.0 **** 0.06
19490 H 113.67176128514603 13.667432089751813 131.171627713673 H 0.0 **** 0.06
19491 C 21.800836551160643 156.78622933671548 81.8691480382529 C 0.0 **** -0.24
19492 H 21.86413445350729 155.71831328301786 81.65930632345224 H 0.0 **** 0.06
19493 H 22.415067855537615 157.02270642114647 82.73791633007481 H 0.0 **** 0.06
19494 H 20.763408697470766 157.05485018389865 82.07221253892541 H 0.0 **** 0.06
19495 H 22.15934901014367 157.34792824429113 81.0058056676006 H 0.0 **** 0.06
19496 C 120.11845600585144 93.56130419405362 127.33214206571938 C 0.0 **** -0.24
19497 H 120.13644828255383 93.94114037546505 128.3540890484515 H 0.0 **** 0.06
19498 H 120.10788754721861 94.3987951380224 126.63422509565169 H 0.0 **** 0.06
19499 H 119.22354759350947 92.95550391391967 127.1863002305646 H 0.0 **** 0.06
19500 H 121.0038958218407 92.95129012364049 127.15608243843417 H 0.0 **** 0.06
19501 C 47.92845635434864 120.69366871839986 156.03830014236362 C 0.0 **** -0.24
19502 H 47.38803898654788 119.82372776719444 156.41198005546053 H 0.0 **** 0.06
19503 H 48.95241589786606 120.67288751937593 156.4130812646951 H 0.0 **** 0.06
19504 H 47.43360253456754 121.60183126428132 156.38131372655448 H 0.0 **** 0.06
19505 H 47.93929210879648 120.67374422945676 154.94843892945542 H 0.0 **** 0.06
19506 C 151.28158893712123 8.263117293274043 28.302622438430767 C 0.0 **** -0.24
19507 H 152.09181131511775 8.75189829849495 28.84312004712963 H 0.0 **** 0.06
19508 H 150.5843981055168 9.016201665330364 27.93413667794696 H 0.0 **** 0.06
19509 H 150.75753128777558 7.580946539844071 28.971869397837885 H 0.0 **** 0.06
19510 H 151.69056651454707 7.7032906227047775 27.46225034255759 H 0.0 **** 0.06
19511 C 49.59772053055542 125.36110926524725 91.79244378763327 C 0.0 **** -0.24
19512 H 48.782963691483445 124.6780350383772 92.03376052202756 H 0.0 **** 0.06
19513 H 49.23201359904061 126.14272759938959 91.12702432875358 H 0.0 **** 0.06
19514 H 50.398800878709494 124.80956350288406 91.29997103246448 H 0.0 **** 0.06
19515 H 49.97667013012949 125.8106388452529 92.70988925847718 H 0.0 **** 0.06
19516 C 153.75884167420003 128.5499647663261 33.89475881701492 C 0.0 **** -0.24
19517 H 153.9299148005979 129.34371538902263 34.62132248463024 H 0.0 **** 0.06
19518 H 154.10775922683501 128.8739185671232 32.91368320045035 H 0.0 **** 0.06
19519 H 152.69292688159132 128.3261885681135 33.84546641036644 H 0.0 **** 0.06
19520 H 154.30408205918522 127.6564261766334 34.197946139791384 H 0.0 **** 0.06
19521 C 0.1029076775398039 82.45621490003913 109.84194612351757 C 0.0 **** -0.24
19522 H 1.1329745151918473 82.32395027348699 109.51194579895758 H 0.0 **** 0.06
19523 H 0.09438930675310075 82.83747897877129 110.86315031528812 H 0.0 **** 0.06
19524 H -0.4154513592164335 81.49719579883629 109.80741825318552 H 0.0 **** 0.06
19525 H -0.4008420567735129 83.16430133076432 109.18429602340416 H 0.0 **** 0.06
19526 C 51.24481799738254 111.7931517775092 89.03129949310794 C 0.0 **** -0.24
19527 H 51.89981625989046 112.65825958476441 88.92184332168831 H 0.0 **** 0.06
19528 H 51.37896500480389 111.12615456256768 88.17969386143915 H 0.0 **** 0.06
19529 H 50.20803758339548 112.12630808179378 89.07379766066839 H 0.0 **** 0.06
19530 H 51.493689132912806 111.2631425169497 89.95123820229719 H 0.0 **** 0.06
19531 C 54.81671406063366 10.969953276643537 23.84254376371223 C 0.0 **** -0.24
19532 H 54.92996406537155 10.437140217406238 22.898426961973165 H 0.0 **** 0.06
19533 H 54.07209397427367 11.75805555498522 23.726912423236513 H 0.0 **** 0.06
19534 H 55.77163488161412 11.41116262107198 24.12807904170721 H 0.0 **** 0.06
19535 H 54.491532603748325 10.272796253299589 24.615375562428788 H 0.0 **** 0.06
19536 C 32.28531963187814 100.114476957488 62.725153350761204 C 0.0 **** -0.24
19537 H 32.12205561636053 99.75947573600635 63.742780912425104 H 0.0 **** 0.06
19538 H 33.21822282066714 100.67813325607534 62.682690129525724 H 0.0 **** 0.06
19539 H 31.45736862737418 100.75926213412421 62.428026931072225 H 0.0 **** 0.06
19540 H 32.343104774257284 99.26254137494806 62.047792669983664 H 0.0 **** 0.06
19541 C 96.59588032135235 58.29042469875053 45.674472060451535 C 0.0 **** -0.24
19542 H 97.48663858724038 58.8467360343258 45.96534015514237 H 0.0 **** 0.06
19543 H 95.72328209635111 58.71483615272595 46.17196290455638 H 0.0 **** 0.06
19544 H 96.70852697856873 57.24609994623886 45.965513973242366 H 0.0 **** 0.06
19545 H 96.46465490120451 58.35489485700312 44.59403633247348 H 0.0 **** 0.06
19546 C 77.60250825478852 94.27544976003242 153.0503581884206 C 0.0 **** -0.24
19547 H 77.60145886734855 94.75773587047325 154.02811883290508 H 0.0 **** 0.06
19548 H 78.2059919728014 94.86249646584724 152.3570217143037 H 0.0 **** 0.06
19549 H 76.58043280718002 94.21095369986978 152.6769202443058 H 0.0 **** 0.06
19550 H 78.02154835358346 93.27370674637064 153.13911150748157 H 0.0 **** 0.06
19551 C 70.03846190612731 83.00347785568287 162.3043288080254 C 0.0 **** -0.24
19552 H 69.80159751526446 83.49596410549894 163.24715561816913 H 0.0 **** 0.06
19553 H 69.1287484305887 82.58363010509674 161.87568548418056 H 0.0 **** 0.06
19554 H 70.75867038318285 82.20403235224506 162.48296682607022 H 0.0 **** 0.06
19555 H 70.46532719734326 83.72856376160124 161.61239726027273 H 0.0 **** 0.06
19556 C 159.3829081344305 120.24698755268366 54.644874390853175 C 0.0 **** -0.24
19557 H 158.43267299155525 120.49362658231621 54.171242446939914 H 0.0 **** 0.06
19558 H 159.79286903603926 119.34620887148333 54.187942571844246 H 0.0 **** 0.06
19559 H 159.224359340703 120.07570774018365 55.709292232849236 H 0.0 **** 0.06
19560 H 160.08037096845894 121.07354629566748 54.50965941215571 H 0.0 **** 0.06
19561 C 73.06928320824392 35.96632657061238 34.639825166049945 C 0.0 **** -0.24
19562 H 72.98150542273501 37.043279515948825 34.78721344451111 H 0.0 **** 0.06
19563 H 72.76759634223599 35.44956106502468 35.55094771881075 H 0.0 **** 0.06
19564 H 74.103173118919 35.7151600409623 34.4040883057956 H 0.0 **** 0.06
19565 H 72.42362281095677 35.658858683814856 33.81680084902531 H 0.0 **** 0.06
19566 C 44.370913901368226 137.33525243633164 124.43978329552436 C 0.0 **** -0.24
19567 H 43.76828635902564 138.23815696500847 124.34042878776208 H 0.0 **** 0.06
19568 H 45.34253443976769 137.4949926534034 123.97215261589213 H 0.0 **** 0.06
19569 H 43.86372102824885 136.50501320511114 123.95040000810482 H 0.0 **** 0.06
19570 H 44.509053243638846 137.10564105454125 125.49658697054812 H 0.0 **** 0.06
19571 C 115.25642179657751 105.95871238577814 130.3243521307377 C 0.0 **** -0.24
19572 H 116.07281912610674 105.94150423109846 129.60207507364186 H 0.0 **** 0.06
19573 H 114.34269625736079 105.60201473891266 129.84673476473446 H 0.0 **** 0.06
19574 H 115.10689764800375 106.97894054955404 130.67883048289724 H 0.0 **** 0.06
19575 H 115.50277556945366 105.31323360795867 131.16659958842615 H 0.0 **** 0.06
19576 C 26.180868353707353 100.4898458018356 119.8281637956942 C 0.0 **** -0.24
19577 H 25.319318415653697 99.86773124562126 120.07177425390759 H 0.0 **** 0.06
19578 H 26.924819219130825 100.40365361112424 120.61933876636027 H 0.0 **** 0.06
19579 H 25.86400517596263 101.52903279611803 119.7368128780677 H 0.0 **** 0.06
19580 H 26.612223318490095 100.15695678889892 118.88417245447161 H 0.0 **** 0.06
19581 C 120.71211382606077 10.24168969106762 131.878946218225 C 0.0 **** -0.24
19582 H 121.48532416630863 10.527235132687224 132.59150245949758 H 0.0 **** 0.06
19583 H 120.8909867821094 10.742738109914683 130.9273392518134 H 0.0 **** 0.06
19584 H 119.73537244631507 10.53462016403887 132.26549622240623 H 0.0 **** 0.06
19585 H 120.73489738041116 9.161138724544742 131.73078943171737 H 0.0 **** 0.06
19586 C 47.768420499865044 160.48704521111495 66.8582547732024 C 0.0 **** -0.24
19587 H 48.785616337577125 160.4184126386931 67.24331456151327 H 0.0 **** 0.06
19588 H 47.134743805472525 160.9868658591152 67.59073140510671 H 0.0 **** 0.06
19589 H 47.38446341657071 159.4849418758527 66.66820817633901 H 0.0 **** 0.06
19590 H 47.77009603038307 161.05779416575848 65.9289099934681 H 0.0 **** 0.06
19591 C 18.371349164530955 45.62978630525329 100.38481353759718 C 0.0 **** -0.24
19592 H 18.42496659417526 46.194517262180725 99.45420246668397 H 0.0 **** 0.06
19593 H 17.45163491840441 45.88396285417686 100.91238046664463 H 0.0 **** 0.06
19594 H 19.22910749505607 45.878245777965844 101.00958740416223 H 0.0 **** 0.06
19595 H 18.380903701225236 44.56296163239658 100.16260717311258 H 0.0 **** 0.06
19596 C 139.81979181602327 114.02704206445219 13.54139101988904 C 0.0 **** -0.24
19597 H 138.82178420336015 114.33999149191098 13.233817726868686 H 0.0 **** 0.06
19598 H 140.40627496231502 113.7665284115117 12.660816215746792 H 0.0 **** 0.06
19599 H 139.74190818856067 113.15896879909701 14.197092816828217 H 0.0 **** 0.06
19600 H 140.3073755197048 114.8428305358317 14.075121437064986 H 0.0 **** 0.06
19601 C 31.555582291180123 0.10709581274335278 17.80244469266961 C 0.0 **** -0.24
19602 H 31.06555685126218 0.9464439427733851 18.295987643340908 H 0.0 **** 0.06
19603 H 30.841501679949765 -0.39774332547852964 17.152309198018315 H 0.0 **** 0.06
19604 H 31.920878519002954 -0.59274635572379 18.554664401154866 H 0.0 **** 0.06
19605 H 32.393559370060785 0.4733937566392683 17.20934260287774 H 0.0 **** 0.06
19606 C 28.77395784794291 85.56902279745525 26.57384160467234 C 0.0 **** -0.24
19607 H 28.287664572147378 85.6954079178439 25.606834112074523 H 0.0 **** 0.06
19608 H 29.17055921050587 86.5274136339215 26.909648444794925 H 0.0 **** 0.06
19609 H 29.589358087810353 84.85113355221034 26.47801167071654 H 0.0 **** 0.06
19610 H 28.04946821497188 85.20014528525626 27.30012943956416 H 0.0 **** 0.06
19611 C 91.64289895376885 122.96503899016068 124.16426188225341 C 0.0 **** -0.24
19612 H 91.91311747002155 122.34305487096643 125.01745503527422 H 0.0 **** 0.06
19613 H 92.4144718476859 123.71884193653233 124.0057681591187 H 0.0 **** 0.06
19614 H 90.69000188031366 123.45631344854814 124.36167372806429 H 0.0 **** 0.06
19615 H 91.55378178475938 122.34286270600077 123.27417782265047 H 0.0 **** 0.06
19616 C 32.0461628470033 22.346873786387405 29.21226041001387 C 0.0 **** -0.24
19617 H 32.00731708786972 21.695906884954077 30.085561017291013 H 0.0 **** 0.06
19618 H 32.594234706366024 23.25633695058127 29.460491908258916 H 0.0 **** 0.06
19619 H 31.032390619493412 22.60585877177131 28.906323303540034 H 0.0 **** 0.06
19620 H 32.55052078073214 21.82986996684445 28.395807113058083 H 0.0 **** 0.06
19621 C 135.84599667441123 49.76825289123781 108.4767159683573 C 0.0 **** -0.24
19622 H 136.32483084975945 50.727974404081465 108.6682212518545 H 0.0 **** 0.06
19623 H 136.39004928828254 48.97960978300449 108.99657523795105 H 0.0 **** 0.06
19624 H 135.85071436886744 49.56731441593814 107.40474051551391 H 0.0 **** 0.06
19625 H 134.81707070238872 49.7979834839237 108.83621466554848 H 0.0 **** 0.06
19626 C 17.446584828578807 88.75696449018963 48.97400962642776 C 0.0 **** -0.24
19627 H 17.188858183242814 87.86698564023516 48.39928926003242 H 0.0 **** 0.06
19628 H 18.364731797798697 89.1909200649689 48.579098835618055 H 0.0 **** 0.06
19629 H 17.59286746567693 88.48423605965374 50.01846805357165 H 0.0 **** 0.06
19630 H 16.638617204078173 89.48461331422263 48.897397851159766 H 0.0 **** 0.06
19631 C 53.90556215480625 78.99913404313338 155.8090844919703 C 0.0 **** -0.24
19632 H 53.43665048306211 78.78563920711855 154.847976960156 H 0.0 **** 0.06
19633 H 54.87043629460874 78.49535263807792 155.86288071099543 H 0.0 **** 0.06
19634 H 53.262088443496 78.64025754887359 156.61385972358008 H 0.0 **** 0.06
19635 H 54.04966289036166 80.07499716648252 155.91215435616988 H 0.0 **** 0.06
19636 C 17.480720334656098 151.76695018550623 114.19318240201949 C 0.0 **** -0.24
19637 H 17.10888166954402 151.71428283959818 115.21648734991453 H 0.0 **** 0.06
19638 H 17.02300738918683 152.61572644487796 113.68424075272537 H 0.0 **** 0.06
19639 H 17.228024580822876 150.84671713574016 113.66704380048617 H 0.0 **** 0.06
19640 H 18.563080069538643 151.89206284576667 114.20637554972575 H 0.0 **** 0.06
19641 C 80.21682562678082 16.92352256817844 21.859296672490245 C 0.0 **** -0.24
19642 H 79.4036482107334 17.335589396170377 21.262541909493336 H 0.0 **** 0.06
19643 H 81.16944481153898 17.149563214616762 21.38127351388505 H 0.0 **** 0.06
19644 H 80.09715094857816 15.842867731840329 21.938593341661942 H 0.0 **** 0.06
19645 H 80.19534320999156 17.365184057274917 22.85530042451944 H 0.0 **** 0.06
19646 C 131.284248855196 130.55483473237499 111.60198289079733 C 0.0 **** -0.24
19647 H 130.53744654625513 131.2546298845141 111.97755035963382 H 0.0 **** 0.06
19648 H 131.64759074827023 129.93685040085182 112.42312714949009 H 0.0 **** 0.06
19649 H 132.11574086667173 131.10962533232902 111.16828569724933 H 0.0 **** 0.06
19650 H 130.83448557702616 129.91826861344578 110.83897930410689 H 0.0 **** 0.06
19651 C 156.980427979361 31.559126895796553 43.65343884605879 C 0.0 **** -0.24
19652 H 157.97784184457498 31.59371174284413 44.08992742435515 H 0.0 **** 0.06
19653 H 156.28438878607594 31.12604578740042 44.37208135953631 H 0.0 **** 0.06
19654 H 156.99935250058564 30.946591091987244 42.75195805802785 H 0.0 **** 0.06
19655 H 156.65917950320738 32.569134118371224 43.400009041352305 H 0.0 **** 0.06
19656 C 65.71908045960045 161.14636311445486 124.31052652138311 C 0.0 **** -0.24
19657 H 65.64026408654853 160.59789891819725 125.2490492185272 H 0.0 **** 0.06
19658 H 64.72745129339624 161.26326602656553 123.87349659289902 H 0.0 **** 0.06
19659 H 66.35910825307506 160.59563479823737 123.62138387015665 H 0.0 **** 0.06
19660 H 66.15074314727566 162.13004768210817 124.49975892315135 H 0.0 **** 0.06
19661 C 124.88761351664365 104.665680813178 92.15593640814802 C 0.0 **** -0.24
19662 H 124.0005656306412 105.26698441949813 91.95541236271292 H 0.0 **** 0.06
19663 H 125.01476123448813 103.92980254706637 91.36192980108851 H 0.0 **** 0.06
19664 H 124.76989307635483 104.15354660272158 93.11139511089506 H 0.0 **** 0.06
19665 H 125.76308499620941 105.31346523158535 92.19548230123401 H 0.0 **** 0.06
19666 C 87.65085519571036 15.894980973243605 112.08709169999861 C 0.0 **** -0.24
19667 H 88.6062874473293 15.44658355307726 111.81747942879778 H 0.0 **** 0.06
19668 H 87.72314180044798 16.330855941253446 113.08359183479425 H 0.0 **** 0.06
19669 H 86.87499725838904 15.12905144614183 112.08007079293401 H 0.0 **** 0.06
19670 H 87.39850793302878 16.67389194102617 111.36648121836973 H 0.0 **** 0.06
19671 C 21.651445996607436 66.44969891276823 152.9619650884477 C 0.0 **** -0.24
19672 H 20.942689846317535 65.96978144907196 152.28633365452123 H 0.0 **** 0.06
19673 H 22.432728644545136 66.93990321529752 152.37989544987806 H 0.0 **** 0.06
19674 H 22.099123545197386 65.6988454262836 153.61150773513097 H 0.0 **** 0.06
19675 H 21.1304728838071 67.1913382211051 153.5670807741043 H 0.0 **** 0.06
19676 C 49.7744398105109 62.5398249290151 134.72236556188525 C 0.0 **** -0.24
19677 H 49.17888629736069 61.64744437983241 134.91337290853986 H 0.0 **** 0.06
19678 H 49.937460638308494 62.64500520094933 133.6506607899011 H 0.0 **** 0.06
19679 H 50.73518655768851 62.449697494532614 135.22936811855365 H 0.0 **** 0.06
19680 H 49.245235087455114 63.4160833343646 135.09868253767772 H 0.0 **** 0.06
19681 C 80.90806939524718 145.47083624753975 149.79576539919435 C 0.0 **** -0.24
19682 H 80.49168426716662 145.95442295700144 150.67952847859607 H 0.0 **** 0.06
19683 H 80.55358214930374 144.44032911094578 149.74580791576784 H 0.0 **** 0.06
19684 H 81.99632327998604 145.4791932179321 149.85501480850712 H 0.0 **** 0.06
19685 H 80.58757901842037 146.00904469354063 148.90316780037136 H 0.0 **** 0.06
19686 C 147.6514638848219 71.9864653309412 53.66790382464319 C 0.0 **** -0.24
19687 H 148.4205802023073 72.568452275548 53.158818191307034 H 0.0 **** 0.06
19688 H 147.8157984791212 70.92566874442642 53.48127432644719 H 0.0 **** 0.06
19689 H 146.66995080604056 72.27483785462093 53.29106004689976 H 0.0 **** 0.06
19690 H 147.70054566667767 72.17986243171862 54.740016426123475 H 0.0 **** 0.06
19691 C 149.45749810515136 19.834348997563623 32.41144917235035 C 0.0 **** -0.24
19692 H 148.94004694005972 19.11253019550015 33.043079407182574 H 0.0 **** 0.06
19693 H 148.7570619950566 20.25366754867907 31.688506509388674 H 0.0 **** 0.06
19694 H 150.27135375499162 19.33730341173542 31.883644739402335 H 0.0 **** 0.06
19695 H 149.86240652452426 20.635030829677525 33.03153600114264 H 0.0 **** 0.06
19696 C 43.40662061355323 84.4882019075308 89.62946178323605 C 0.0 **** -0.24
19697 H 43.2556639988575 85.5411965526917 89.866772186725 H 0.0 **** 0.06
19698 H 43.91199609366616 84.40187735997064 88.66706031721887 H 0.0 **** 0.06
19699 H 42.4423065814821 83.98402103575421 89.57989460301343 H 0.0 **** 0.06
19700 H 44.018949799964204 84.0255857673753 90.40387585052736 H 0.0 **** 0.06
19701 C 152.53224150759502 89.64136835106686 17.683247145164245 C 0.0 **** -0.24
19702 H 153.13032470511942 89.02892336121053 18.357420309116208 H 0.0 **** 0.06
19703 H 151.74722436603838 89.02873498969285 17.237601130524155 H 0.0 **** 0.06
19704 H 153.17017443526998 90.04380940119376 16.89606377952819 H 0.0 **** 0.06
19705 H 152.0811613686964 90.46208999492325 18.240752786833696 H 0.0 **** 0.06
19706 C 21.309500222610268 84.53710055534441 140.16395612839636 C 0.0 **** -0.24
19707 H 20.53724238516611 84.58736202877913 139.39589786600916 H 0.0 **** 0.06
19708 H 20.892814719151318 84.85694117623018 141.11942043778652 H 0.0 **** 0.06
19709 H 22.136504663604256 85.192595925629 139.88974571441628 H 0.0 **** 0.06
19710 H 21.670317546813607 83.51257726917163 140.24886619082812 H 0.0 **** 0.06
19711 C 39.096987087169225 135.70588684226675 100.89449590708716 C 0.0 **** -0.24
19712 H 40.165488538676186 135.9199812371094 100.9185186948888 H 0.0 **** 0.06
19713 H 38.56653787267683 136.44396647549368 101.49672174781983 H 0.0 **** 0.06
19714 H 38.91708709884034 134.70955390897586 101.29756106077787 H 0.0 **** 0.06
19715 H 38.74036725047222 135.7515350546281 99.86584078155545 H 0.0 **** 0.06
19716 C 64.4956199411009 95.53082951012742 61.31476564885428 C 0.0 **** -0.24
19717 H 64.02660791276924 94.8379701176955 62.014656703931124 H 0.0 **** 0.06
19718 H 65.5645224934296 95.58776822344153 61.52115164920657 H 0.0 **** 0.06
19719 H 64.04959969820004 96.519385085565 61.42906660015079 H 0.0 **** 0.06
19720 H 64.33908256735911 95.17807729623885 60.29555626370842 H 0.0 **** 0.06
19721 C 97.50912193359397 54.99780553097551 28.42264298879377 C 0.0 **** -0.24
19722 H 96.80636838620413 54.83978862978081 27.60434110258788 H 0.0 **** 0.06
19723 H 98.39756956785467 54.38518453023494 28.262364375567643 H 0.0 **** 0.06
19724 H 97.03917987180108 54.71627279116045 29.364920351133605 H 0.0 **** 0.06
19725 H 97.79390314410495 56.04913041642479 28.45892647223306 H 0.0 **** 0.06
19726 C 58.45798385750868 37.9188688172415 36.61438824032871 C 0.0 **** -0.24
19727 H 58.45199234107115 36.88681995931648 36.96506631707487 H 0.0 **** 0.06
19728 H 58.426116882052284 38.59412919204824 37.46969917296042 H 0.0 **** 0.06
19729 H 57.58643856190703 38.09255465606718 35.98232264396762 H 0.0 **** 0.06
19730 H 59.365990137758644 38.10286842426332 36.03997236218521 H 0.0 **** 0.06
19731 C 128.66257250371277 25.12143698636708 56.44365627469347 C 0.0 **** -0.24
19732 H 128.92821294109845 24.651483834303917 55.49732387299498 H 0.0 **** 0.06
19733 H 127.90818456020722 25.8887115061507 56.26983885460072 H 0.0 **** 0.06
19734 H 129.54980341895472 25.57744944724154 56.88452341607915 H 0.0 **** 0.06
19735 H 128.26501827652524 24.3682488049645 57.12439343038862 H 0.0 **** 0.06
19736 C 88.78910051893902 50.38410065212291 53.310047350542845 C 0.0 **** -0.24
19737 H 88.17199593057576 49.492639952275866 53.419726823954534 H 0.0 **** 0.06
19738 H 88.86387924155373 50.894103989577516 54.27106848932442 H 0.0 **** 0.06
19739 H 88.33519258256128 51.05224653337807 52.57837152514688 H 0.0 **** 0.06
19740 H 89.78478042262427 50.097928873577246 52.972580211491874 H 0.0 **** 0.06
19741 C 41.276442174201634 21.21791023177189 110.00617676435195 C 0.0 **** -0.24
19742 H 41.16549092936714 20.210284299357127 109.60760354827937 H 0.0 **** 0.06
19743 H 40.389612692607955 21.803512296524723 109.76506158221196 H 0.0 **** 0.06
19744 H 42.15447772532383 21.688771365520708 109.56283011316611 H 0.0 **** 0.06
19745 H 41.398230372718615 21.16919287050611 111.0878657602322 H 0.0 **** 0.06
19746 C 139.0873221976937 129.85505629680915 72.62857717505563 C 0.0 **** -0.24
19747 H 138.48860067218868 130.02780804987208 73.52251129024398 H 0.0 **** 0.06
19748 H 139.32699625581432 128.7947962445669 72.55018194250653 H 0.0 **** 0.06
19749 H 140.00989284663257 130.43266474548562 72.69229338604521 H 0.0 **** 0.06
19750 H 138.52403435652437 130.16713579457706 71.74888173655842 H 0.0 **** 0.06
19751 C 32.15017619222891 21.67447609171475 161.29381719897071 C 0.0 **** -0.24
19752 H 32.83972124733913 21.282442303470148 162.041379891365 H 0.0 **** 0.06
19753 H 31.81509886803832 22.66668960571124 161.59468321682084 H 0.0 **** 0.06
19754 H 31.290367421377113 21.009947174219462 161.20892284979274 H 0.0 **** 0.06
19755 H 32.657647579874464 21.737776775152852 160.33088485952712 H 0.0 **** 0.06
19756 C 38.67578860383027 110.63075617097039 143.10961035356405 C 0.0 **** -0.24
19757 H 38.57089953241716 110.06063075586803 142.18698089102548 H 0.0 **** 0.06
19758 H 38.186545516402575 110.09603015721581 143.92424841576383 H 0.0 **** 0.06
19759 H 38.21183096034194 111.60964358254256 142.98597938523113 H 0.0 **** 0.06
19760 H 39.73283801791915 110.75690626899697 143.3402930272706 H 0.0 **** 0.06
19761 C 137.9711822592683 29.181784607151826 138.0592400208593 C 0.0 **** -0.24
19762 H 138.4109638475043 28.185122812541806 138.08589068922345 H 0.0 **** 0.06
19763 H 136.887678117633 29.09831902143074 137.96938372045207 H 0.0 **** 0.06
19764 H 138.36578717672165 29.73049292959263 137.20431547479126 H 0.0 **** 0.06
19765 H 138.2194495002152 29.71291786066905 138.978463453088 H 0.0 **** 0.06
19766 C 68.80230136887917 152.02144873176113 88.28494314062236 C 0.0 **** -0.24
19767 H 67.87862656722314 151.9767050472042 87.7078498008969 H 0.0 **** 0.06
19768 H 68.71990943594068 152.80052202285236 89.04405728856966 H 0.0 **** 0.06
19769 H 69.63552624638442 152.24874264885332 87.61981184424766 H 0.0 **** 0.06
19770 H 68.97508974441456 151.05956345580304 88.76901729657085 H 0.0 **** 0.06
19771 C 15.132040120751583 106.3346641915764 120.59560732099271 C 0.0 **** -0.24
19772 H 14.459321930446606 106.02731320152853 119.79441602923089 H 0.0 **** 0.06
19773 H 15.437546605619275 107.36896612221301 120.4361765432526 H 0.0 **** 0.06
19774 H 16.012122950662388 105.69128981415187 120.59630745336864 H 0.0 **** 0.06
19775 H 14.617917980800541 106.24938155687673 121.55317881518374 H 0.0 **** 0.06
19776 C 13.49311345420631 95.75545108222164 21.265785678803354 C 0.0 **** -0.24
19777 H 14.377121706321532 95.14928249473776 21.464453537371014 H 0.0 **** 0.06
19778 H 13.68812761568526 96.41546272245512 20.4198725620667 H 0.0 **** 0.06
19779 H 13.257010233089204 96.35309799472537 22.1461295251043 H 0.0 **** 0.06
19780 H 12.651053575608614 95.10499326667157 21.033130156136906 H 0.0 **** 0.06
19781 C 98.68322311036778 61.94512477139341 79.34424771249635 C 0.0 **** -0.24
19782 H 98.80598962016123 60.92422572463795 78.98180545022905 H 0.0 **** 0.06
19783 H 99.2158233778197 62.0615096509992 80.2878744166884 H 0.0 **** 0.06
19784 H 97.62322744437179 62.14933954246982 79.49730453176164 H 0.0 **** 0.06
19785 H 99.08541064173102 62.642654333974065 78.61061326186342 H 0.0 **** 0.06
19786 C 107.84835152400203 4.47618845075408 81.44461472995651 C 0.0 **** -0.24
19787 H 108.4908378964576 5.207027452528962 80.95246688485722 H 0.0 **** 0.06
19788 H 107.07050508876137 4.99501672949404 82.00436554913574 H 0.0 **** 0.06
19789 H 108.44514897935625 3.8694509034080795 82.12533434109967 H 0.0 **** 0.06
19790 H 107.38940128400287 3.8334065985446344 80.69285808786783 H 0.0 **** 0.06
19791 C 154.0162295586464 152.04750288377147 3.167993922471851 C 0.0 **** -0.24
19792 H 152.9339241849955 152.17537895671617 3.1480027972193056 H 0.0 **** 0.06
19793 H 154.26202723973725 151.10694270849888 3.6612959821332254 H 0.0 **** 0.06
19794 H 154.46860752906812 152.87441149019645 3.714918202181593 H 0.0 **** 0.06
19795 H 154.3981969942879 152.03440652332267 2.147530694987921 H 0.0 **** 0.06
19796 C 35.4127474962599 150.61677094215938 153.38643295192907 C 0.0 **** -0.24
19797 H 34.94950172191608 149.82678369347582 153.97703462548512 H 0.0 **** 0.06
19798 H 34.8422702360088 151.53819103354746 153.50183900394745 H 0.0 **** 0.06
19799 H 35.423332743632784 150.3253929157747 152.3360917416363 H 0.0 **** 0.06
19800 H 36.43490249329153 150.7763137628923 153.72939810991724 H 0.0 **** 0.06
19801 C 33.949021354673306 115.5475533865299 115.02012055500876 C 0.0 **** -0.24
19802 H 34.29152570634734 116.26984976501313 115.7625292225822 H 0.0 **** 0.06
19803 H 32.99861455885156 115.12056087931978 115.34050966446125 H 0.0 **** 0.06
19804 H 34.688783651573075 114.75423644864807 114.91846525114909 H 0.0 **** 0.06
19805 H 33.818959131264094 116.04835942549556 114.06070094477332 H 0.0 **** 0.06
19806 C 17.577098692212303 57.61801696533712 97.35784874536529 C 0.0 **** -0.24
19807 H 18.282751062285968 58.30761465698008 97.82136856090852 H 0.0 **** 0.06
19808 H 18.057144048809107 57.12254694136537 96.51354383156561 H 0.0 **** 0.06
19809 H 16.70604501128156 58.17094517071014 97.00768062894917 H 0.0 **** 0.06
19810 H 17.265721004499312 56.87139212790066 98.08773169104987 H 0.0 **** 0.06
19811 C 129.030788950695 80.14456583376773 141.85318930342385 C 0.0 **** -0.24
19812 H 128.4138863682951 80.188631238906 142.7510057180504 H 0.0 **** 0.06
19813 H 129.10916779182318 81.14072390269035 141.41706233526503 H 0.0 **** 0.06
19814 H 128.57548088292586 79.46675647408398 141.13232396286674 H 0.0 **** 0.06
19815 H 130.02511784351017 79.78279603002125 142.11419218745652 H 0.0 **** 0.06
19816 C 84.6585020508906 8.306716924480753 4.748063731818036 C 0.0 **** -0.24
19817 H 84.02095953124893 9.091253320566608 5.154805681323012 H 0.0 **** 0.06
19818 H 84.52977123899728 8.258923579444115 3.666120539671681 H 0.0 **** 0.06
19819 H 84.38114203257663 7.3496416669676705 5.189416443246728 H 0.0 **** 0.06
19820 H 85.69981039206284 8.526889212360373 4.9811579807360715 H 0.0 **** 0.06
19821 C 127.20821169800877 27.4967958056925 34.31939191598667 C 0.0 **** -0.24
19822 H 127.8842511026923 28.302832741942723 34.03628592955653 H 0.0 **** 0.06
19823 H 126.45939808961646 27.877600876983763 35.01463472500586 H 0.0 **** 0.06
19824 H 127.77550603750046 26.697778192892628 34.79835944076831 H 0.0 **** 0.06
19825 H 126.71321601329657 27.10829732055595 33.42943627036826 H 0.0 **** 0.06
19826 C 65.17930096828363 53.67963030900931 43.26352014109503 C 0.0 **** -0.24
19827 H 65.95245304478529 54.40712427363151 43.015112668324974 H 0.0 **** 0.06
19828 H 64.79150942820102 53.88785628022116 44.26073352069548 H 0.0 **** 0.06
19829 H 65.60388432687391 52.6764500580699 43.24023529783304 H 0.0 **** 0.06
19830 H 64.36912354727734 53.74804417479736 42.536981105491336 H 0.0 **** 0.06
19831 C 27.6283640864133 74.20063748844711 125.11790267528428 C 0.0 **** -0.24
19832 H 27.53118477626583 73.998319430814 126.18456777859086 H 0.0 **** 0.06
19833 H 28.030503939751135 75.20290870730224 124.97398337790551 H 0.0 **** 0.06
19834 H 26.648683812680645 74.12924047870078 124.64444527249654 H 0.0 **** 0.06
19835 H 28.301621772238207 73.47026732901207 124.67050426473364 H 0.0 **** 0.06
19836 C 51.29103477630882 124.69650003967192 145.65256300586395 C 0.0 **** -0.24
19837 H 50.928462564995584 125.46030842037595 144.96465021737623 H 0.0 **** 0.06
19838 H 52.37091405956555 124.79477664644861 145.76739472913863 H 0.0 **** 0.06
19839 H 51.056472827714416 123.70900277833621 145.25462869005327 H 0.0 **** 0.06
19840 H 50.80877529497134 124.82157658840634 146.62166748102914 H 0.0 **** 0.06
19841 C 133.7970974042006 57.63464711149939 114.29787730115851 C 0.0 **** -0.24
19842 H 133.1656372059055 58.47825328554592 114.57830291633746 H 0.0 **** 0.06
19843 H 134.14614094202085 57.76698328818736 113.27371100326448 H 0.0 **** 0.06
19844 H 133.22294672529603 56.71168402859952 114.37111639150143 H 0.0 **** 0.06
19845 H 134.65394654097014 57.58459026348393 114.96992174304043 H 0.0 **** 0.06
19846 C 60.25498719999 103.76332207044624 74.69559529394468 C 0.0 **** -0.24
19847 H 60.23120878648864 104.50580081048037 75.4930454512812 H 0.0 **** 0.06
19848 H 61.05934078000605 103.05304976297384 74.8854910712758 H 0.0 **** 0.06
19849 H 60.42669421822572 104.26112612692532 73.74154201489125 H 0.0 **** 0.06
19850 H 59.30188331221716 103.23497152568149 74.66355545118307 H 0.0 **** 0.06
19851 C 131.24902470263913 132.69496751636683 53.670553007144804 C 0.0 **** -0.24
19852 H 131.00098397004535 131.83219357585585 53.05315706641167 H 0.0 **** 0.06
19853 H 131.91499783384234 132.38555643635925 54.47666990778524 H 0.0 **** 0.06
19854 H 130.33553595486603 133.11341654413974 54.093883368572136 H 0.0 **** 0.06
19855 H 131.7445810518028 133.44870350911236 53.05850168581033 H 0.0 **** 0.06
19856 C 54.44480088189209 35.59375876378277 154.80020726518188 C 0.0 **** -0.24
19857 H 53.46615962536083 35.96934617338546 155.09924781180405 H 0.0 **** 0.06
19858 H 54.62228751841346 35.83446956369416 153.75191070951718 H 0.0 **** 0.06
19859 H 54.475093581694495 34.51267245249946 154.93606232175506 H 0.0 **** 0.06
19860 H 55.21574595203158 36.058473717038154 155.41584157527706 H 0.0 **** 0.06
19861 C 74.5115550656823 85.65417637921541 153.37258748660233 C 0.0 **** -0.24
19862 H 74.88504344684766 85.78532523044902 154.38832774548274 H 0.0 **** 0.06
19863 H 75.22512795641752 86.07969549446665 152.66654139197462 H 0.0 **** 0.06
19864 H 73.5524586190331 86.16064593210294 153.27109161981667 H 0.0 **** 0.06
19865 H 74.38574192949605 84.59101670880347 153.16647964724774 H 0.0 **** 0.06
19866 C 33.50078920359931 81.1761714877271 133.2222349069631 C 0.0 **** -0.24
19867 H 33.86127973503142 80.34595728117186 133.82961271717082 H 0.0 **** 0.06
19868 H 32.48422523993645 80.96674994072832 132.88864355119642 H 0.0 **** 0.06
19869 H 34.15057607264549 81.29989254604287 132.35525566092122 H 0.0 **** 0.06
19870 H 33.50860134952836 82.09024307881 133.81595281325957 H 0.0 **** 0.06
19871 C 114.26486036028726 92.99738123495183 30.64398769046869 C 0.0 **** -0.24
19872 H 114.80983364330712 93.25531749793805 29.736674172452894 H 0.0 **** 0.06
19873 H 114.2405602301032 91.91265619114017 30.757438115308048 H 0.0 **** 0.06
19874 H 113.24543818993831 93.37914739356819 30.57668288577412 H 0.0 **** 0.06
19875 H 114.76357924018001 93.4412456883129 31.50596663519653 H 0.0 **** 0.06
19876 C 118.83385449549823 79.63924492833223 87.58173430959484 C 0.0 **** -0.24
19877 H 118.9250006053349 80.64271132342094 87.16489205658944 H 0.0 **** 0.06
19878 H 118.00076689634344 79.61199743181453 88.28380159206088 H 0.0 **** 0.06
19879 H 119.75558723694203 79.37667716164731 88.10025986925443 H 0.0 **** 0.06
19880 H 118.65472565869953 78.92706908351676 86.77545686361012 H 0.0 **** 0.06
19881 C 90.09331879639733 51.941663251813864 8.364836321101166 C 0.0 **** -0.24
19882 H 90.34772755367919 52.73699255732198 9.065344945163275 H 0.0 **** 0.06
19883 H 89.0681729682418 52.075296849687604 8.018380018054245 H 0.0 **** 0.06
19884 H 90.18624538992094 50.97639120409525 8.862347498866114 H 0.0 **** 0.06
19885 H 90.77236340571771 51.97807260656778 7.512589494791911 H 0.0 **** 0.06
19886 C 147.62240843250788 64.87596753652394 161.8707817730572 C 0.0 **** -0.24
19887 H 148.60042903817657 64.51330255248416 161.55376493808237 H 0.0 **** 0.06
19888 H 147.1315292238084 65.37365801117335 161.03398091639517 H 0.0 **** 0.06
19889 H 147.74676342458037 65.58225089696546 162.69180888295 H 0.0 **** 0.06
19890 H 147.01317974914343 64.0352709967164 162.2028775404502 H 0.0 **** 0.06
19891 C 111.52184120672419 130.60155846500362 115.43199879225381 C 0.0 **** -0.24
19892 H 111.79190435767737 131.65398056603613 115.35090969635417 H 0.0 **** 0.06
19893 H 111.21061356631327 130.23051752810633 114.45511197320974 H 0.0 **** 0.06
19894 H 110.70201210306911 130.49021274001078 116.14180597278084 H 0.0 **** 0.06
19895 H 112.383412541962 130.03122039029483 115.77940946603246 H 0.0 **** 0.06
19896 C 30.897553059411166 113.70859666023179 43.62038226285188 C 0.0 **** -0.24
19897 H 31.055382281764764 112.88618921847211 42.922086612201156 H 0.0 **** 0.06
19898 H 29.945516489245733 113.57057570058583 44.13323550689472 H 0.0 **** 0.06
19899 H 30.88384998129277 114.65177975011841 43.07420304294459 H 0.0 **** 0.06
19900 H 31.706252167545017 113.72395246336504 44.35110506271997 H 0.0 **** 0.06
19901 C 133.164162704515 66.6544998731921 11.00513088892319 C 0.0 **** -0.24
19902 H 133.74232039364566 67.17317361128528 11.769138783162987 H 0.0 **** 0.06
19903 H 133.69607751226152 66.698413389532 10.054539437315384 H 0.0 **** 0.06
19904 H 132.18992074215737 67.13138202355172 10.899438607880938 H 0.0 **** 0.06
19905 H 133.02859362243157 65.61260399575266 11.297616618255347 H 0.0 **** 0.06
19906 C 128.5216659687506 16.208579148198453 136.6840694670726 C 0.0 **** -0.24
19907 H 129.5427755570974 16.091473587242604 137.0478267626213 H 0.0 **** 0.06
19908 H 128.34642534668345 17.25300512338103 136.42539984575762 H 0.0 **** 0.06
19909 H 127.82195695543584 15.903703867961667 137.46191791030097 H 0.0 **** 0.06
19910 H 128.37759194783905 15.586179471633272 135.80032900391933 H 0.0 **** 0.06
19911 C 90.46875420885988 117.88521461820048 38.36257581741695 C 0.0 **** -0.24
19912 H 90.79013591448296 118.88985074905173 38.08710910320002 H 0.0 **** 0.06
19913 H 91.29983115037703 117.35369375528748 38.82701587790885 H 0.0 **** 0.06
19914 H 90.14759062219612 117.34979338866643 37.46956524135571 H 0.0 **** 0.06
19915 H 89.63903488143336 117.94925107463621 39.06589011287437 H 0.0 **** 0.06
19916 C 130.38506969541152 106.40057467247553 117.15264772737945 C 0.0 **** -0.24
19917 H 131.32390885091482 105.86669547846458 117.00586592045408 H 0.0 **** 0.06
19918 H 130.1493584497281 106.43391589944767 118.21573445413352 H 0.0 **** 0.06
19919 H 129.5870491228917 105.88423307860361 116.61831037502029 H 0.0 **** 0.06
19920 H 130.4809298805598 107.4162225138422 116.76775661766507 H 0.0 **** 0.06
19921 C 148.7060358973506 119.17185328610287 95.57219459643461 C 0.0 **** -0.24
19922 H 149.09548154720449 119.12386544639759 94.55590178906179 H 0.0 **** 0.06
19923 H 149.25385544104554 119.92750301279332 96.13564921647503 H 0.0 **** 0.06
19924 H 148.8263956530792 118.20129840383726 96.05293630435509 H 0.0 **** 0.06
19925 H 147.64841094807338 119.43474628138338 95.54429107584644 H 0.0 **** 0.06
19926 C 114.73485386944932 13.410171639755305 71.32785112705628 C 0.0 **** -0.24
19927 H 113.75351523066416 13.667524521727792 71.72583330291808 H 0.0 **** 0.06
19928 H 114.6485812076447 12.53126780179457 70.6901914374514 H 0.0 **** 0.06
19929 H 115.41639711667082 13.196496727781792 72.15187705049635 H 0.0 **** 0.06
19930 H 115.12078171344075 14.246616356249952 70.74562284251252 H 0.0 **** 0.06
19931 C 128.54675072854855 100.4265039956525 6.694018419592908 C 0.0 **** -0.24
19932 H 128.4270558932807 99.42187988387218 7.098628568148342 H 0.0 **** 0.06
19933 H 127.99616586888735 101.13562264257828 7.3125658532146645 H 0.0 **** 0.06
19934 H 128.1603110964919 100.45617305607547 5.674747089400455 H 0.0 **** 0.06
19935 H 129.60358069691222 100.69310257527857 6.689494297998863 H 0.0 **** 0.06
19936 C 117.76436169288124 74.68046990860853 94.82207826966268 C 0.0 **** -0.24
19937 H 118.12139987726528 75.37479368096729 95.58218356920102 H 0.0 **** 0.06
19938 H 118.61726210661297 74.24539595057502 94.29882740805758 H 0.0 **** 0.06
19939 H 117.13413268780337 75.2141369134659 94.10995481451334 H 0.0 **** 0.06
19940 H 117.1861622487734 73.88739143857794 95.29651457459147 H 0.0 **** 0.06
19941 C 45.5831591083944 32.92053413135126 65.97666055640236 C 0.0 **** -0.24
19942 H 44.99361647170025 32.05508160383949 66.27937702635367 H 0.0 **** 0.06
19943 H 46.2002902124421 33.25009592378426 66.81355668750176 H 0.0 **** 0.06
19944 H 44.91504900756769 33.72795336982365 65.67719450049067 H 0.0 **** 0.06
19945 H 46.22309037225517 32.64804461194976 65.13736722419898 H 0.0 **** 0.06
19946 C 25.504330725290657 162.74515093462614 73.97687075906578 C 0.0 **** -0.24
19947 H 25.905366566846283 162.46981394046088 73.00153664003454 H 0.0 **** 0.06
19948 H 24.892319288501767 163.64210486110366 73.8765685038968 H 0.0 **** 0.06
19949 H 26.325765521746803 162.93923749927342 74.66581060051448 H 0.0 **** 0.06
19950 H 24.892229274321068 161.92901037307823 74.36109499290012 H 0.0 **** 0.06
19951 C 96.61585912070427 162.49089329933412 139.2846835760711 C 0.0 **** -0.24
19952 H 96.47244091798882 162.76169079464273 140.33067821689627 H 0.0 **** 0.06
19953 H 95.77468833125317 162.85734009743092 138.69635263220886 H 0.0 **** 0.06
19954 H 96.67754583926137 161.4064874264225 139.1955124198438 H 0.0 **** 0.06
19955 H 97.53905492003616 162.93845194207586 138.91706064077306 H 0.0 **** 0.06
19956 C 100.57579541262743 84.18823370782324 79.29546492737673 C 0.0 **** -0.24
19957 H 100.5184132036411 84.7992606729451 78.39388840390075 H 0.0 **** 0.06
19958 H 101.53044503169576 83.66165961788505 79.31664789655221 H 0.0 **** 0.06
19959 H 99.76057195975648 83.46384126293759 79.29591299118647 H 0.0 **** 0.06
19960 H 100.49325892672857 84.82805114814921 80.1732326550685 H 0.0 **** 0.06
19961 C 12.869515807759967 101.68705615735311 88.79442276139973 C 0.0 **** -0.24
19962 H 12.267157682059917 100.79535577998081 88.6221991656612 H 0.0 **** 0.06
19963 H 12.256774856202355 102.45387655113791 89.26724073193691 H 0.0 **** 0.06
19964 H 13.247470124038784 102.05867060453983 87.84240644399853 H 0.0 **** 0.06
19965 H 13.707258386243495 101.43794656062738 89.44588392062776 H 0.0 **** 0.06
19966 C 139.89927847708486 33.99575970229665 93.22435133799041 C 0.0 **** -0.24
19967 H 138.84882215545483 34.208201347447414 93.02056718626744 H 0.0 **** 0.06
19968 H 140.50045654352547 34.27758940302198 92.36012810482704 H 0.0 **** 0.06
19969 H 140.02234160722313 32.93099523400829 93.42318030467358 H 0.0 **** 0.06
19970 H 140.22202842627064 34.56732159911081 94.0944520902004 H 0.0 **** 0.06
19971 C 42.34351493880082 31.7575242255827 84.39019120651352 C 0.0 **** -0.24
19972 H 42.925307420234404 32.29858540455021 83.64405170173376 H 0.0 **** 0.06
19973 H 42.81617623557071 30.796615719690635 84.5921540270212 H 0.0 **** 0.06
19974 H 41.332826829670424 31.59485743073344 84.0147768494289 H 0.0 **** 0.06
19975 H 42.299920155450394 32.34133535671276 85.30924500941308 H 0.0 **** 0.06
19976 C 122.24342191082349 141.55290528991736 154.26748260135255 C 0.0 **** -0.24
19977 H 122.27466179482377 141.1114916292308 153.27172214655369 H 0.0 **** 0.06
19978 H 122.67913400830196 142.55208421116313 154.23525929065846 H 0.0 **** 0.06
19979 H 122.81188716000611 140.93109181582625 154.9587901363959 H 0.0 **** 0.06
19980 H 121.20916774832224 141.61775375445296 154.60407557829672 H 0.0 **** 0.06
19981 C 110.682951748743 104.55048344412128 120.0446446825272 C 0.0 **** -0.24
19982 H 111.59975362615614 104.10189739970832 120.42741058898523 H 0.0 **** 0.06
19983 H 109.98277890022536 103.76282088927934 119.766703084559 H 0.0 **** 0.06
19984 H 110.91364968975228 105.15816437911391 119.16914069943465 H 0.0 **** 0.06
19985 H 110.23702586869808 105.179237547106 120.81537177197052 H 0.0 **** 0.06
19986 C 116.41951382752313 36.82189445590643 113.33263094346876 C 0.0 **** -0.24
19987 H 115.53496610376232 37.33964648677386 112.96221225772456 H 0.0 **** 0.06
19988 H 116.13945309848964 35.82557467443655 113.67581130403738 H 0.0 **** 0.06
19989 H 116.84992384448651 37.384974995785456 114.16005365512615 H 0.0 **** 0.06
19990 H 117.15273976192145 36.73724934809394 112.53020225000074 H 0.0 **** 0.06
19991 C 161.88525174443214 3.1789260170598936 11.696459283442458 C 0.0 **** -0.24
19992 H 160.84629689992778 3.4699401676574553 11.852229818367164 H 0.0 **** 0.06
19993 H 161.93831296849496 2.441386684811903 10.894835846687002 H 0.0 **** 0.06
19994 H 162.2837134213173 2.7477333015273757 12.614122593638314 H 0.0 **** 0.06
19995 H 162.4709622714904 4.05654040079321 11.421815795095064 H 0.0 **** 0.06
19996 C 62.91959997896703 79.89417191599937 24.53516706845165 C 0.0 **** -0.24
19997 H 61.985742543803795 80.4551067806218 24.569666620450015 H 0.0 **** 0.06
19998 H 63.724260742673025 80.50409137253219 24.94680792253652 H 0.0 **** 0.06
19999 H 63.150118328489896 79.63742025201579 23.501075806223078 H 0.0 **** 0.06
20000 H 62.817676740111864 78.98233479003925 25.122406816991457 H 0.0 **** 0.06
20001 C 9.353745597913942 112.11911686194554 60.010644100373554 C 0.0 **** -0.24
20002 H 8.960812615901453 112.25658106382508 59.00302108769195 H 0.0 **** 0.06
20003 H 10.347432468825716 112.56091530922163 60.07580047016003 H 0.0 **** 0.06
20004 H 9.41443783829726 111.05364219292446 60.23364646374333 H 0.0 **** 0.06
20005 H 8.691357404291665 112.60332303068796 60.728086166341214 H 0.0 **** 0.06
20006 C 112.66361223153831 6.916015654663397 61.181294631594085 C 0.0 **** -0.24
20007 H 112.62004529249165 5.858428741620344 60.91942114084763 H 0.0 **** 0.06
20008 H 113.6367215975414 7.32022221857693 60.901014245329364 H 0.0 **** 0.06
20009 H 112.51763848714774 7.029688653635276 62.25624301207894 H 0.0 **** 0.06
20010 H 111.8792200685588 7.454682604665095 60.64898952354743 H 0.0 **** 0.06
20011 C 70.21877855801426 88.49347265614209 155.23533151770906 C 0.0 **** -0.24
20012 H 69.4676917891718 88.8307399723564 154.52155546284516 H 0.0 **** 0.06
20013 H 70.27360619325094 87.40532699773816 155.2177022647928 H 0.0 **** 0.06
20014 H 69.94547464765316 88.82864751840657 156.23567527302882 H 0.0 **** 0.06
20015 H 71.18863519091315 88.91014524561677 154.96540580496674 H 0.0 **** 0.06
20016 C 124.4245702596007 44.34930048507556 86.46990649296035 C 0.0 **** -0.24
20017 H 123.73646520442054 43.77895254654487 87.09534679710774 H 0.0 **** 0.06
20018 H 124.84882015530303 45.168617201233815 87.0508350771721 H 0.0 **** 0.06
20019 H 123.88673254298297 44.75117460445563 85.61156761988717 H 0.0 **** 0.06
20020 H 125.22529875369534 43.69565054852603 86.12296771466397 H 0.0 **** 0.06
20021 C 2.2948120467139717 98.6229252407463 43.555307474973574 C 0.0 **** -0.24
20022 H 2.5722185333933396 98.2431842350743 44.53837830155953 H 0.0 **** 0.06
20023 H 2.0563914170248907 99.68394461372438 43.629781302194644 H 0.0 **** 0.06
20024 H 1.424844554137863 98.07890878932386 43.188451240761054 H 0.0 **** 0.06
20025 H 3.1273349890368323 98.48442994552335 42.864297699394754 H 0.0 **** 0.06
20026 C 132.09643618319643 21.539272020041636 32.13290265301055 C 0.0 **** -0.24
20027 H 131.34705810924277 21.43572437374081 31.34794198284027 H 0.0 **** 0.06
20028 H 132.74914188531514 22.381459241853292 31.9035104116532 H 0.0 **** 0.06
20029 H 132.68751554740052 20.62520410855325 32.1919611221561 H 0.0 **** 0.06
20030 H 131.59995619987546 21.712579119692634 33.087746166816714 H 0.0 **** 0.06
20031 C 146.2350396059871 46.195024787663655 60.61975570659614 C 0.0 **** -0.24
20032 H 147.01917118127278 45.94006980251304 59.906837419176455 H 0.0 **** 0.06
20033 H 146.56313433279675 47.03216345975939 61.23616673757675 H 0.0 **** 0.06
20034 H 146.02731525522952 45.33407673266815 61.2549571623223 H 0.0 **** 0.06
20035 H 145.33118387958973 46.47477524013611 60.07891436690403 H 0.0 **** 0.06
20036 C 104.19436766169702 46.180357808396124 10.84425902202338 C 0.0 **** -0.24
20037 H 105.15257162727457 46.416377676107444 10.383493810841031 H 0.0 **** 0.06
20038 H 103.87408287083241 47.017016501737274 11.465811725999885 H 0.0 **** 0.06
20039 H 104.29745107195879 45.28738166994154 11.462015713186702 H 0.0 **** 0.06
20040 H 103.4526097166474 45.99989261182047 10.066635526599669 H 0.0 **** 0.06
20041 C 58.61861486739515 138.04770355412887 137.63741550718416 C 0.0 **** -0.24
20042 H 59.660380690171635 137.98991137019183 137.32022640938783 H 0.0 **** 0.06
20043 H 58.53621681360936 138.72105066591067 138.49036806857052 H 0.0 **** 0.06
20044 H 58.27066642173422 137.05517641959847 137.92303520515486 H 0.0 **** 0.06
20045 H 58.00928494256307 138.42341027060513 136.81621436081136 H 0.0 **** 0.06
20046 C 86.84401596120541 63.85901826526138 103.59335945669329 C 0.0 **** -0.24
20047 H 86.71045272399823 63.200776553883486 104.45315747689119 H 0.0 **** 0.06
20048 H 86.3134525201312 63.44643209291337 102.73538222291882 H 0.0 **** 0.06
20049 H 87.90541637673391 63.94017455176932 103.36095325443898 H 0.0 **** 0.06
20050 H 86.44630607716941 64.84608377304193 103.82711008766478 H 0.0 **** 0.06
20051 C 126.80067953444174 114.13411945252156 67.99783064791859 C 0.0 **** -0.24
20052 H 127.76277562831834 114.33182863468895 67.5255584478266 H 0.0 **** 0.06
20053 H 126.24820326350968 115.06860949338636 68.10235925403938 H 0.0 **** 0.06
20054 H 126.96285277451949 113.69605678742977 68.98261478388149 H 0.0 **** 0.06
20055 H 126.22943667321292 113.44125913413725 67.38105192827561 H 0.0 **** 0.06
20056 C 108.92759547054021 69.56340526659028 107.25344165839161 C 0.0 **** -0.24
20057 H 108.27244529449712 70.23810037374074 106.70140031229414 H 0.0 **** 0.06
20058 H 109.05820240377159 68.64079908751705 106.68715237839632 H 0.0 **** 0.06
20059 H 108.48136430119524 69.33513372939791 108.220957384889 H 0.0 **** 0.06
20060 H 109.89704801738242 70.03853874178823 107.4027895402588 H 0.0 **** 0.06
20061 C 66.11383730056863 136.21975138229328 88.6097218801001 C 0.0 **** -0.24
20062 H 65.76114935101144 136.36046778992102 87.58810798424179 H 0.0 **** 0.06
20063 H 66.89833721836244 135.46331302664146 88.62236070259036 H 0.0 **** 0.06
20064 H 65.28453922819259 135.89279223038136 89.2380158518481 H 0.0 **** 0.06
20065 H 66.50956007218119 137.16109987163128 88.99074203672194 H 0.0 **** 0.06
20066 C 161.15694197791413 78.35999403425785 21.912680865161803 C 0.0 **** -0.24
20067 H 161.01124143554634 79.43308459931895 22.032954803942715 H 0.0 **** 0.06
20068 H 162.06093416542208 78.05487615978006 22.44023757204701 H 0.0 **** 0.06
20069 H 161.256189158769 78.1229402864573 20.853012804415584 H 0.0 **** 0.06
20070 H 160.29880291277533 77.82779567403628 22.324571799843454 H 0.0 **** 0.06
20071 C 80.82591550573925 91.371083513472 31.824418664690228 C 0.0 **** -0.24
20072 H 81.59774564319338 90.97680176091868 31.16326815202717 H 0.0 **** 0.06
20073 H 81.27013511277418 92.09214179290463 32.51110329034384 H 0.0 **** 0.06
20074 H 80.38224206979343 90.55362896332888 32.39220892290996 H 0.0 **** 0.06
20075 H 80.0546701321297 91.86152150492062 31.230279780579906 H 0.0 **** 0.06
20076 C 153.8504601831618 30.92877094289784 76.4288388264729 C 0.0 **** -0.24
20077 H 153.58165422425807 31.574391357794525 77.26476853939789 H 0.0 **** 0.06
20078 H 153.0241120404087 30.89217553832148 75.71841965239919 H 0.0 **** 0.06
20079 H 154.0585320538986 29.925244183081247 76.79739538557139 H 0.0 **** 0.06
20080 H 154.73762673148696 31.325470097408328 75.93436620086857 H 0.0 **** 0.06
20081 C 162.44610910130405 138.68808633348323 124.2729737801165 C 0.0 **** -0.24
20082 H 163.3561263711996 138.7949845454041 123.68297786220043 H 0.0 **** 0.06
20083 H 161.6539072201799 139.29311062862178 123.83149710921231 H 0.0 **** 0.06
20084 H 162.6322062026581 139.02245697004332 125.29359810003729 H 0.0 **** 0.06
20085 H 162.14080651735887 137.64128157329353 124.28292428613153 H 0.0 **** 0.06
20086 C 25.225471215233256 77.88455780475383 76.03918590621943 C 0.0 **** -0.24
20087 H 25.924361079930293 78.05298832084515 76.85807536937305 H 0.0 **** 0.06
20088 H 25.313017582473663 76.85481437218736 75.69257379621622 H 0.0 **** 0.06
20089 H 25.455960904941094 78.56490996728095 75.21910584495747 H 0.0 **** 0.06
20090 H 24.20758441739025 78.06571739307378 76.38679571019611 H 0.0 **** 0.06
20091 C 141.32618024583743 93.87716721316713 65.07572724156836 C 0.0 **** -0.24
20092 H 140.50161103474463 94.52190745595638 64.7727330659485 H 0.0 **** 0.06
20093 H 141.30521947250008 92.9606857956751 64.48603298712487 H 0.0 **** 0.06
20094 H 141.2264063615962 93.63262784170529 66.1328566086886 H 0.0 **** 0.06
20095 H 142.2711076997805 94.39475527165949 64.90951179771622 H 0.0 **** 0.06
20096 C 78.82201257656902 25.87451585318763 74.65814616979584 C 0.0 **** -0.24
20097 H 78.59596905104435 25.949031808708526 75.72186631826449 H 0.0 **** 0.06
20098 H 78.31098164605707 25.008136732255082 74.23839093339595 H 0.0 **** 0.06
20099 H 79.89755436456508 25.765345163757786 74.52222909589965 H 0.0 **** 0.06
20100 H 78.4816436762923 26.778239885453957 74.15156372430074 H 0.0 **** 0.06
20101 C 66.54720980537512 140.45715794280778 54.76168574980761 C 0.0 **** -0.24
20102 H 66.605246790312 140.02935320197446 53.76044866953907 H 0.0 **** 0.06
20103 H 66.08485005039323 139.73721876549737 55.43777074918181 H 0.0 **** 0.06
20104 H 65.94803970464844 141.36702597981036 54.73330990627032 H 0.0 **** 0.06
20105 H 67.55169990814282 140.69359069286554 55.11350397189591 H 0.0 **** 0.06
20106 C 84.26465082162645 148.42892221748812 81.47222117856424 C 0.0 **** -0.24
20107 H 83.87628709932716 147.6044605407513 82.06988530543772 H 0.0 **** 0.06
20108 H 84.75289410799479 149.1521147269493 82.12595886555496 H 0.0 **** 0.06
20109 H 83.44365224840396 148.91293403142126 80.94445349794965 H 0.0 **** 0.06
20110 H 84.98546690654217 148.04664716455366 80.74988691199091 H 0.0 **** 0.06
20111 C 19.129999446385796 106.5286262322193 138.72766360227575 C 0.0 **** -0.24
20112 H 18.892747631538896 106.7014039296935 139.77762994155955 H 0.0 **** 0.06
20113 H 20.21072791866527 106.57628482242839 138.58780819380766 H 0.0 **** 0.06
20114 H 18.650783901288946 107.29459305760068 138.11724721522933 H 0.0 **** 0.06
20115 H 18.76684599584712 105.54522936425039 138.4299019315726 H 0.0 **** 0.06
20116 C 71.10030113760143 103.44056404419828 91.21236737216763 C 0.0 **** -0.24
20117 H 71.75323632069738 103.74119846347602 92.03091755823607 H 0.0 **** 0.06
20118 H 71.65227281020593 102.80194948559344 90.5230753007763 H 0.0 **** 0.06
20119 H 70.74738750017667 104.32668654075508 90.68485648193762 H 0.0 **** 0.06
20120 H 70.24640928621567 102.8919669310994 91.61171034968005 H 0.0 **** 0.06
20121 C 47.51166228161273 0.7116123669517265 79.11648840145196 C 0.0 **** -0.24
20122 H 47.178830402999765 0.9347975214396911 78.10252972311709 H 0.0 **** 0.06
20123 H 47.94289271158054 1.608350766585545 79.56253261848786 H 0.0 **** 0.06
20124 H 48.263226688361584 -0.07748034993829833 79.08751444378404 H 0.0 **** 0.06
20125 H 46.66078751598475 0.38225252485551664 79.71344661217509 H 0.0 **** 0.06
20126 C 11.996587540074927 6.375133090067635 4.635213609764037 C 0.0 **** -0.24
20127 H 11.871351284245407 6.527258448510651 5.707696075775573 H 0.0 **** 0.06
20128 H 11.165532683374408 5.7810721190313075 4.2536899873010725 H 0.0 **** 0.06
20129 H 12.934113289777144 5.851583602903105 4.45004548017144 H 0.0 **** 0.06
20130 H 12.013686565230387 7.3412716076237245 4.132029937377467 H 0.0 **** 0.06
20131 C 147.01828830352724 71.18163201211287 130.88114137941753 C 0.0 **** -0.24
20132 H 146.0674421109053 70.67647737121673 130.7078116364206 H 0.0 **** 0.06
20133 H 147.62704531815166 71.1312953104045 129.97874293660735 H 0.0 **** 0.06
20134 H 147.54355649153135 70.69462873850401 131.70272947425616 H 0.0 **** 0.06
20135 H 146.8326855726835 72.22505841777559 131.1370863658195 H 0.0 **** 0.06
20136 C 156.26116068940277 148.5523711190966 55.929825640341534 C 0.0 **** -0.24
20137 H 155.20089414528613 148.65551651737388 56.16248582876983 H 0.0 **** 0.06
20138 H 156.85456429861557 148.91573647092343 56.76890587313471 H 0.0 **** 0.06
20139 H 156.4948103384486 149.13550473937033 55.03882850751256 H 0.0 **** 0.06
20140 H 156.4927457703402 147.50256494768757 55.74793218244747 H 0.0 **** 0.06
20141 C 153.11078752153304 73.39472157361513 147.84551685876892 C 0.0 **** -0.24
20142 H 153.71417886360624 74.02112686935533 147.1896257808467 H 0.0 **** 0.06
20143 H 153.28392449330497 72.34498403314251 147.60576994988307 H 0.0 **** 0.06
20144 H 152.056207728388 73.6307620754423 147.70329450943035 H 0.0 **** 0.06
20145 H 153.38755735479435 73.5811447771136 148.88260059123942 H 0.0 **** 0.06
20146 C 96.2733397797976 74.27376830274613 6.659236475435478 C 0.0 **** -0.24
20147 H 95.74822610575251 73.3489140707596 6.421057705250746 H 0.0 **** 0.06
20148 H 96.69912937605659 74.20293086985521 7.660926638052899 H 0.0 **** 0.06
20149 H 95.57470376076878 75.1093177599405 6.618497462822631 H 0.0 **** 0.06
20150 H 97.07294567602739 74.43364098556128 5.935360093191605 H 0.0 **** 0.06
20151 C 157.5933277043812 52.1246113298094 14.513938433461476 C 0.0 **** -0.24
20152 H 157.3797331255443 52.5282565466365 15.503567528208066 H 0.0 **** 0.06
20153 H 157.7366432425523 52.94574887280919 13.810899546125086 H 0.0 **** 0.06
20154 H 156.75834721027232 51.505981351562355 14.185576790223024 H 0.0 **** 0.06
20155 H 158.49926437386935 51.52047846682058 14.556389257518987 H 0.0 **** 0.06
20156 C 45.741936218525225 113.00104073787321 7.819922473696799 C 0.0 **** -0.24
20157 H 45.19558929013833 113.92935421446089 7.654601683913931 H 0.0 **** 0.06
20158 H 46.56395675841797 112.93227500337971 7.108114682277694 H 0.0 **** 0.06
20159 H 45.06921273365323 112.15412307581161 7.68320212015383 H 0.0 **** 0.06
20160 H 46.13828225210894 112.98976101019915 8.836154977091908 H 0.0 **** 0.06
20161 C 63.91999947351448 16.31563870412532 44.41283111565144 C 0.0 **** -0.24
20162 H 64.38321898332633 16.362769522477663 45.39898336730592 H 0.0 **** 0.06
20163 H 63.33438186602119 15.399699735335275 44.330900081699596 H 0.0 **** 0.06
20164 H 64.69531832975376 16.321865212076716 43.647254383751786 H 0.0 **** 0.06
20165 H 63.26697975026724 17.17830779500764 44.277346196364505 H 0.0 **** 0.06
20166 C 45.56221400953024 81.4520703454098 18.544291141530465 C 0.0 **** -0.24
20167 H 46.128877961864646 82.15945418198044 17.93764794206669 H 0.0 **** 0.06
20168 H 45.18719365649679 80.64892921672921 17.91026834634033 H 0.0 **** 0.06
20169 H 44.72374522142559 81.9678364950044 19.013849731380077 H 0.0 **** 0.06
20170 H 46.20958338949714 81.03515176742826 19.315791395377744 H 0.0 **** 0.06
20171 C 123.14174885770478 25.913401936245428 80.29413372411561 C 0.0 **** -0.24
20172 H 123.95646336782727 26.118979624460998 80.98965078876724 H 0.0 **** 0.06
20173 H 122.58177211535158 25.043609891967435 80.63848052791626 H 0.0 **** 0.06
20174 H 123.55140721955729 25.714803231536855 79.30368915667351 H 0.0 **** 0.06
20175 H 122.47846972083181 26.77740907771677 80.24653834184289 H 0.0 **** 0.06
20176 C 8.681317206275743 116.63854012501827 73.67353733447094 C 0.0 **** -0.24
20177 H 7.7967144413596685 116.66555126316464 73.03859863568208 H 0.0 **** 0.06
20178 H 8.507676442636395 115.96000260089684 74.50966209594574 H 0.0 **** 0.06
20179 H 8.885559883042994 117.63890322920997 74.05417288352835 H 0.0 **** 0.06
20180 H 9.534526882954182 116.28936583191287 73.09283828475262 H 0.0 **** 0.06
20181 C 81.51601919791659 87.110590593982 108.36818089854381 C 0.0 **** -0.24
20182 H 82.21178870847632 87.23491035003816 109.19784000671928 H 0.0 **** 0.06
20183 H 80.71641127382895 86.43119514845662 108.66346017890518 H 0.0 **** 0.06
20184 H 82.0456153741026 86.69791689595279 107.50980268969946 H 0.0 **** 0.06
20185 H 81.09221556801174 88.07857929492404 108.1026810231277 H 0.0 **** 0.06
20186 C 91.95972492791556 151.10745568935496 126.21285435453751 C 0.0 **** -0.24
20187 H 92.93109678995802 151.4244019089437 125.83556984265752 H 0.0 **** 0.06
20188 H 91.47328615199638 151.94614235984739 126.71278624758986 H 0.0 **** 0.06
20189 H 92.09384767512068 150.29009961928335 126.92058309086775 H 0.0 **** 0.06
20190 H 91.33913062525892 150.77042895738424 125.38221269467999 H 0.0 **** 0.06
20191 C 6.393090865478392 73.52527161100208 107.61036513135309 C 0.0 **** -0.24
20192 H 6.528441080190966 73.1884497759995 106.58255132098014 H 0.0 **** 0.06
20193 H 6.4618259182726945 74.61222717443171 107.6479408770773 H 0.0 **** 0.06
20194 H 7.1698159291979024 73.09028966035898 108.24010298431222 H 0.0 **** 0.06
20195 H 5.414501638388288 73.20922141229264 107.97035571834135 H 0.0 **** 0.06
20196 C 68.35244815796807 132.3552974032483 157.4026138184889 C 0.0 **** -0.24
20197 H 68.79723067006863 132.66517586631812 156.45789975708965 H 0.0 **** 0.06
20198 H 69.05034113399743 132.55571710141226 158.21617034665613 H 0.0 **** 0.06
20199 H 68.13108736258313 131.28860399632174 157.36760769693237 H 0.0 **** 0.06
20200 H 67.43002714120655 132.91240531092768 157.57028355454497 H 0.0 **** 0.06
20201 C 140.6328773946887 100.21172691785043 73.72312850689659 C 0.0 **** -0.24
20202 H 140.27735942557348 100.38565536615096 74.73786525654033 H 0.0 **** 0.06
20203 H 141.29093834534967 99.34185960523527 73.71305124262587 H 0.0 **** 0.06
20204 H 141.18236566513278 101.08734621849351 73.37542837698184 H 0.0 **** 0.06
20205 H 139.78226828020965 100.03171794142762 73.06523658677706 H 0.0 **** 0.06
20206 C 48.322228463769676 139.02454646050606 79.57977222724571 C 0.0 **** -0.24
20207 H 48.142005740818064 138.0068346085338 79.92378409609324 H 0.0 **** 0.06
20208 H 49.31800516229191 139.08795684102088 79.13889831969826 H 0.0 **** 0.06
20209 H 48.25369574132276 139.71117286628308 80.42356207176141 H 0.0 **** 0.06
20210 H 47.5763187378555 139.2928957665268 78.83228767410287 H 0.0 **** 0.06
20211 C 11.060530093020873 67.14270408109992 81.1001096901858 C 0.0 **** -0.24
20212 H 10.103891131513251 66.64093822035794 81.24493292089015 H 0.0 **** 0.06
20213 H 11.353090671576524 67.07267110251263 80.05207840785636 H 0.0 **** 0.06
20214 H 11.818741319024014 66.66488660976081 81.72131503993927 H 0.0 **** 0.06
20215 H 10.967072910554009 68.19175760604183 81.38258861173533 H 0.0 **** 0.06
20216 C 60.7811677087731 10.485323899452652 69.38390154867018 C 0.0 **** -0.24
20217 H 60.261199854298695 11.417001234106777 69.60653942937886 H 0.0 **** 0.06
20218 H 61.81755227456803 10.560475089090858 69.71638801809299 H 0.0 **** 0.06
20219 H 60.75544538170122 10.303257304666374 68.31011575329907 H 0.0 **** 0.06
20220 H 60.29142290903023 9.66298436143694 69.90461984604723 H 0.0 **** 0.06
20221 C 75.71750794713168 15.764140589426319 100.43976070645226 C 0.0 **** -0.24
20222 H 76.26930347416807 15.436967039572124 101.32099507953632 H 0.0 **** 0.06
20223 H 74.67566062269601 15.455283044060906 100.5286822706014 H 0.0 **** 0.06
20224 H 76.15497245320023 15.312747346107074 99.5496288159332 H 0.0 **** 0.06
20225 H 75.76978675467882 16.84965934649975 100.36124456494576 H 0.0 **** 0.06
20226 C 92.01842005671814 86.11438153103188 157.1772247994673 C 0.0 **** -0.24
20227 H 92.56824625782954 87.02043270026807 156.92225561001231 H 0.0 **** 0.06
20228 H 91.44403938124577 85.78314191683715 156.31263935861898 H 0.0 **** 0.06
20229 H 91.34242846571317 86.32169234858972 158.00651813519016 H 0.0 **** 0.06
20230 H 92.72114948151433 85.33424746056741 157.4680151194151 H 0.0 **** 0.06
20231 C 35.69839061475328 62.325604384477074 95.83402930197886 C 0.0 **** -0.24
20232 H 35.54612913637676 63.404370460769854 95.80563846908599 H 0.0 **** 0.06
20233 H 35.39456066392178 61.89122471563678 94.88116806047783 H 0.0 **** 0.06
20234 H 35.098320128460145 61.89596920301952 96.63670663701834 H 0.0 **** 0.06
20235 H 36.75171849227975 62.11183572402588 96.01254867590058 H 0.0 **** 0.06
20236 C 116.00244787282972 3.9750241553286116 139.14621753040558 C 0.0 **** -0.24
20237 H 117.0113441500169 3.673497326831381 139.4285927103852 H 0.0 **** 0.06
20238 H 116.05202956736704 4.8533695259735055 138.5030411106452 H 0.0 **** 0.06
20239 H 115.43103880406443 4.212835670427864 140.04358435740448 H 0.0 **** 0.06
20240 H 115.51567015669247 3.159362113631289 138.6116141789603 H 0.0 **** 0.06
20241 C 74.44793461522808 148.48057497892853 80.26443396421166 C 0.0 **** -0.24
20242 H 74.96033104861827 147.92263228045044 81.04766041408192 H 0.0 **** 0.06
20243 H 75.14015494138506 149.18973824542763 79.81075199236722 H 0.0 **** 0.06
20244 H 73.60387910949021 149.01907100009106 80.69432367971251 H 0.0 **** 0.06
20245 H 74.08687697195992 147.78752559152173 79.50337297136468 H 0.0 **** 0.06
20246 C 104.01944434253744 58.61135765014383 66.36787415686545 C 0.0 **** -0.24
20247 H 104.61156057205346 59.52112626540655 66.27593802682227 H 0.0 **** 0.06
20248 H 104.60841278862301 57.7594273491662 66.0281083729343 H 0.0 **** 0.06
20249 H 103.1205445812119 58.69905839786422 65.75849691559655 H 0.0 **** 0.06
20250 H 103.737909357283 58.46501459894644 67.41066542027325 H 0.0 **** 0.06
20251 C 17.18329878788773 24.259922385331976 143.92567109923456 C 0.0 **** -0.24
20252 H 17.682862260540297 24.99361848519999 143.2931861429203 H 0.0 **** 0.06
20253 H 16.97797693129305 23.36001147593703 143.34581150395434 H 0.0 **** 0.06
20254 H 16.246141701300587 24.676707953112725 144.29403943172198 H 0.0 **** 0.06
20255 H 17.82681954209611 24.00875573882729 144.7691195124681 H 0.0 **** 0.06
20256 C 155.72625030151886 140.47118941556522 70.61458460662652 C 0.0 **** -0.24
20257 H 155.63271486100692 141.5272619331085 70.86857639483377 H 0.0 **** 0.06
20258 H 156.2727723326888 139.95555763068353 71.40486140489605 H 0.0 **** 0.06
20259 H 156.26574232531823 140.37030262186386 69.67353624029381 H 0.0 **** 0.06
20260 H 154.73310297313228 140.03237419161104 70.51360208684216 H 0.0 **** 0.06
20261 C 34.58942659168321 32.97513839314155 89.14567659322468 C 0.0 **** -0.24
20262 H 34.0745556457812 32.95828324018464 88.18533412584209 H 0.0 **** 0.06
20263 H 34.63697201206753 34.000776134970664 89.51450117958863 H 0.0 **** 0.06
20264 H 35.600002886000055 32.58629164317972 89.02275548668793 H 0.0 **** 0.06
20265 H 34.04619336351587 32.3574383020927 89.8601512840963 H 0.0 **** 0.06
20266 C 133.1666212704354 140.8558773014524 51.95411737614853 C 0.0 **** -0.24
20267 H 132.6467951466857 141.12509995616338 52.87385474882552 H 0.0 **** 0.06
20268 H 132.4748944606613 140.35032519715236 51.2809681214336 H 0.0 **** 0.06
20269 H 133.99796987455187 140.19024196212172 52.18946816668421 H 0.0 **** 0.06
20270 H 133.54796212309253 141.7579174853451 51.47434706433546 H 0.0 **** 0.06
20271 C 115.47801617213804 62.31337102495084 143.80037365236257 C 0.0 **** -0.24
20272 H 115.32321769335672 61.55653074444308 143.03077953522933 H 0.0 **** 0.06
20273 H 116.421004556882 62.122635496487504 144.31216433542198 H 0.0 **** 0.06
20274 H 114.6588642066566 62.271584795310886 144.5188093479008 H 0.0 **** 0.06
20275 H 115.50725186988731 63.30004597351693 143.33884721300154 H 0.0 **** 0.06
20276 C 72.06796251236949 80.38289845385349 37.64150718720836 C 0.0 **** -0.24
20277 H 72.69115341264398 81.27381037021229 37.562002946071345 H 0.0 **** 0.06
20278 H 71.67069097066559 80.1294073028233 36.65891347746141 H 0.0 **** 0.06
20279 H 71.24359843081373 80.57772816782264 38.32738042266615 H 0.0 **** 0.06
20280 H 72.66644500523793 79.55378717240366 38.01811178696924 H 0.0 **** 0.06
20281 C 97.05099341534239 99.99149972972415 36.97361521172259 C 0.0 **** -0.24
20282 H 97.93844839014281 99.44349785151385 37.29204338352922 H 0.0 **** 0.06
20283 H 97.18242997327269 100.33063281683815 35.94609487817719 H 0.0 **** 0.06
20284 H 96.90394047982815 100.8528681629233 37.624538930444885 H 0.0 **** 0.06
20285 H 96.18039586636533 99.33854035750721 37.03228216035501 H 0.0 **** 0.06
20286 C 101.52083738696462 79.1742645438161 158.18957775085656 C 0.0 **** -0.24
20287 H 102.23672712088427 78.74524601775141 158.89048775995275 H 0.0 **** 0.06
20288 H 100.61071380788246 78.5741457145811 158.18592686972778 H 0.0 **** 0.06
20289 H 101.95381406070942 79.18486031195846 157.18844247606387 H 0.0 **** 0.06
20290 H 101.2831555765469 80.1939824808733 158.49275351785062 H 0.0 **** 0.06
20291 C 158.5892435485237 79.78627519026007 118.8248529437299 C 0.0 **** -0.24
20292 H 158.87121668082068 80.49716765416431 119.60196679245271 H 0.0 **** 0.06
20293 H 159.47511163079201 79.49797910756413 118.25777975086109 H 0.0 **** 0.06
20294 H 157.86269971561023 80.24853293799771 118.15645583461313 H 0.0 **** 0.06
20295 H 158.148701611187 78.9013827657214 119.28531367554689 H 0.0 **** 0.06
20296 C 122.54297026108327 94.40698208212285 44.38175069861501 C 0.0 **** -0.24
20297 H 122.95363009442585 94.76523037682463 43.43760159728413 H 0.0 **** 0.06
20298 H 121.65911221164586 94.99094433065693 44.63825195368611 H 0.0 **** 0.06
20299 H 123.29050451028138 94.512491098951 45.1667132386782 H 0.0 **** 0.06
20300 H 122.26742338720749 93.35722561450345 44.281540267469495 H 0.0 **** 0.06
20301 C 140.94656533781722 84.82389393321172 45.77976823102688 C 0.0 **** -0.24
20302 H 140.06474135025388 85.46173745942382 45.714247497576494 H 0.0 **** 0.06
20303 H 140.6581192585038 83.84458945789306 46.16130518992408 H 0.0 **** 0.06
20304 H 141.6735596155545 85.27798830589563 46.45328176764309 H 0.0 **** 0.06
20305 H 141.388189514279 84.7130039330194 44.78975594275333 H 0.0 **** 0.06
20306 C 63.236926619155255 3.393827842177643 150.5177202966546 C 0.0 **** -0.24
20307 H 63.34634521594455 4.410045072037576 150.14054138279567 H 0.0 **** 0.06
20308 H 64.1780156135884 2.857136726595428 150.39399869870226 H 0.0 **** 0.06
20309 H 62.45069521340896 2.883488099473368 149.9630804828152 H 0.0 **** 0.06
20310 H 62.97354465781834 3.4256640073352287 151.57503683533355 H 0.0 **** 0.06
20311 C 100.95004150786798 76.1267905707488 112.36849097557601 C 0.0 **** -0.24
20312 H 101.26502158624444 76.59118493543157 111.43427565456065 H 0.0 **** 0.06
20313 H 101.00117070822697 75.04183105336256 112.2709177122712 H 0.0 **** 0.06
20314 H 99.92559575736223 76.42372996995326 112.59481988901774 H 0.0 **** 0.06
20315 H 101.60830716666354 76.45087918973063 113.17528511317462 H 0.0 **** 0.06
20316 C 146.09088993535607 6.683099722387169 38.45112193305283 C 0.0 **** -0.24
20317 H 146.81245469784324 5.874124838405351 38.57042333100162 H 0.0 **** 0.06
20318 H 146.59725690966337 7.641839391706668 38.56504999718163 H 0.0 **** 0.06
20319 H 145.31351909863406 6.589632603892625 39.209377386434255 H 0.0 **** 0.06
20320 H 145.64078419984372 6.6244461714921385 37.46012978187599 H 0.0 **** 0.06
20321 C 78.61274584418732 73.22153647014866 4.123610414519874 C 0.0 **** -0.24
20322 H 79.20295592429807 73.03960368020634 3.2253975326479463 H 0.0 **** 0.06
20323 H 79.2233538575019 73.74344495314527 4.860286218328781 H 0.0 **** 0.06
20324 H 78.277774671732 72.26990073297218 4.537264398083948 H 0.0 **** 0.06
20325 H 77.74555984788094 73.83213403455781 3.8712140369408417 H 0.0 **** 0.06
20326 C 59.70826269433505 79.47095555073713 11.507426862311334 C 0.0 **** -0.24
20327 H 60.437775837245525 78.68874985680043 11.295036386843186 H 0.0 **** 0.06
20328 H 60.145109090127946 80.44491650212666 11.282564226974998 H 0.0 **** 0.06
20329 H 59.430469803020586 79.43199677853002 12.560464451192303 H 0.0 **** 0.06
20330 H 58.82244958213195 79.31854822101775 10.891125815365868 H 0.0 **** 0.06
20331 C 23.81006329007016 75.43303573013202 115.25218787136427 C 0.0 **** -0.24
20332 H 23.534292822083415 76.43623320250357 115.5759243550981 H 0.0 **** 0.06
20333 H 23.7288936605064 75.36604971977836 114.16758370318453 H 0.0 **** 0.06
20334 H 23.14064022335694 74.70626591492962 115.71223052711002 H 0.0 **** 0.06
20335 H 24.836009039950255 75.22328885296258 115.5538688380546 H 0.0 **** 0.06
20336 C 20.494819632530493 158.13389293844003 65.70913090124444 C 0.0 **** -0.24
20337 H 20.24740674015348 158.71263979035945 66.59869696370258 H 0.0 **** 0.06
20338 H 19.8229949394958 157.27913512989534 65.63257035018101 H 0.0 **** 0.06
20339 H 21.523667090477886 157.7830332356954 65.7798711928736 H 0.0 **** 0.06
20340 H 20.38567347564552 158.76316054402338 64.8251856045511 H 0.0 **** 0.06
20341 C 48.131880406492286 95.85249040620977 62.33637078290084 C 0.0 **** -0.24
20342 H 48.89481866374582 96.37361776280419 61.75931159548291 H 0.0 **** 0.06
20343 H 47.723196650180256 95.0338265435782 61.743596847324994 H 0.0 **** 0.06
20344 H 47.33349676605461 96.54876476925003 62.59527513681962 H 0.0 **** 0.06
20345 H 48.5760214771213 95.45439801592494 63.24890682323591 H 0.0 **** 0.06
20346 C 34.95739802150892 43.17854532822032 5.712733532897573 C 0.0 **** -0.24
20347 H 34.31305541389736 43.84503397177801 5.139196825463898 H 0.0 **** 0.06
20348 H 35.98324857890195 43.267725341199224 5.354015757743667 H 0.0 **** 0.06
20349 H 34.61661849854369 42.149578784534796 5.588886493544294 H 0.0 **** 0.06
20350 H 34.915261111409436 43.45065758959976 6.7672193050256055 H 0.0 **** 0.06
20351 C 74.05451595194722 140.98824124767623 0.1797494171233609 C 0.0 **** -0.24
20352 H 74.4832350477711 141.9365349350624 -0.14436919634948708 H 0.0 **** 0.06
20353 H 73.28519282843735 140.67736082476944 -0.5279653476666795 H 0.0 **** 0.06
20354 H 73.61232196385768 141.1086269036935 1.167982983805075 H 0.0 **** 0.06
20355 H 74.83733457350513 140.23131552180308 0.22154999907164097 H 0.0 **** 0.06
20356 C 20.089908433814628 46.3721079801482 107.92384007935459 C 0.0 **** -0.24
20357 H 19.547237234579313 47.25262760687417 107.57896469344698 H 0.0 **** 0.06
20358 H 19.920205561606963 45.54707568812876 107.23156879817324 H 0.0 **** 0.06
20359 H 19.734207346598396 46.09230831986082 108.91571595790964 H 0.0 **** 0.06
20360 H 21.155749479027918 46.59650705231428 107.96914778726483 H 0.0 **** 0.06
20361 C 24.06365518180354 118.94926552411357 114.08626480502417 C 0.0 **** -0.24
20362 H 24.179511431964123 117.95011506930734 113.6647335565699 H 0.0 **** 0.06
20363 H 23.670052244249035 119.62108135869153 113.32314811466944 H 0.0 **** 0.06
20364 H 25.03262311491428 119.31347385399442 114.42725495805809 H 0.0 **** 0.06
20365 H 23.372949700980634 118.90959638838228 114.92821381591858 H 0.0 **** 0.06
20366 C 150.5020335728139 44.432042106514075 0.6731112668435344 C 0.0 **** -0.24
20367 H 151.2393728696486 43.63152614164704 0.7310750467358957 H 0.0 **** 0.06
20368 H 150.9842991832123 45.38610353987268 0.8882125171389248 H 0.0 **** 0.06
20369 H 149.712163207109 44.251683902736815 1.4023407112343875 H 0.0 **** 0.06
20370 H 150.07331371541744 44.45894355216737 -0.32820208238950954 H 0.0 **** 0.06
20371 C 161.41426891377068 50.463244081149014 2.646485692604024 C 0.0 **** -0.24
20372 H 160.8797090235911 51.4061415288694 2.534485870206211 H 0.0 **** 0.06
20373 H 162.30702774071253 50.47474989405151 2.021339193957921 H 0.0 **** 0.06
20374 H 160.7665515325994 49.641450188997624 2.339916170362386 H 0.0 **** 0.06
20375 H 161.7018983005981 50.32966320536144 3.689503119188977 H 0.0 **** 0.06
20376 C 20.894991601090936 98.5061131252584 40.41604737295336 C 0.0 **** -0.24
20377 H 21.659921753656278 98.62462863456662 41.18290118255538 H 0.0 **** 0.06
20378 H 21.372137562607378 98.3381251248677 39.45009000071252 H 0.0 **** 0.06
20379 H 20.28572639786134 99.4089675974181 40.367523272427434 H 0.0 **** 0.06
20380 H 20.26197019103148 97.65371280248826 40.66226360861697 H 0.0 **** 0.06
20381 C 71.84768668627953 11.614459070887193 65.61215753374925 C 0.0 **** -0.24
20382 H 71.75947589393326 12.247839871560018 64.72930223307885 H 0.0 **** 0.06
20383 H 72.39621983336158 12.148796652008002 66.3888290458998 H 0.0 **** 0.06
20384 H 72.38205444555106 10.700970698334885 65.35241164229312 H 0.0 **** 0.06
20385 H 70.85191746640268 11.362168503687059 65.97835969490237 H 0.0 **** 0.06
20386 C 63.49515564195433 34.434453075511556 60.20583408233696 C 0.0 **** -0.24
20387 H 62.58625737464894 35.03292862042764 60.2746297572472 H 0.0 **** 0.06
20388 H 63.58750299070374 34.02783118435036 59.19873058146936 H 0.0 **** 0.06
20389 H 63.446434951945974 33.61728213721824 60.92587562486173 H 0.0 **** 0.06
20390 H 64.35961148339439 35.06160321481184 60.425505836687535 H 0.0 **** 0.06
20391 C 9.595292656235415 143.000321008526 70.48134434794616 C 0.0 **** -0.24
20392 H 9.392049906952764 142.48993059652275 71.42268587093673 H 0.0 **** 0.06
20393 H 10.138983950251031 142.32992469341292 69.81548668873825 H 0.0 **** 0.06
20394 H 10.196789978083103 143.8888453038025 70.67281079237267 H 0.0 **** 0.06
20395 H 8.65418215357397 143.29179153465162 70.01602963540296 H 0.0 **** 0.06
20396 C 8.773719741774244 56.97392881771374 112.16246210988714 C 0.0 **** -0.24
20397 H 7.774850059938444 56.7750994862851 111.77339125758675 H 0.0 **** 0.06
20398 H 9.15384954435524 56.080208362004484 112.65786190081815 H 0.0 **** 0.06
20399 H 8.72758307073832 57.795291944355995 112.87795487407365 H 0.0 **** 0.06
20400 H 9.436409588346464 57.24467973477945 111.34080953841183 H 0.0 **** 0.06
20401 C 41.72078091170674 118.61150846377734 151.749332906665 C 0.0 **** -0.24
20402 H 42.43828441515859 119.088968379861 151.08111614324923 H 0.0 **** 0.06
20403 H 42.10617277818312 118.63072762188995 152.7693018391558 H 0.0 **** 0.06
20404 H 41.5674597404621 117.57837678542228 151.43868296300857 H 0.0 **** 0.06
20405 H 40.77331251243176 119.14846955692371 151.70767642616 H 0.0 **** 0.06
20406 C 42.51781139933547 138.88259744662994 18.345609927222654 C 0.0 **** -0.24
20407 H 42.63509094109331 139.15369876065446 17.296906723196685 H 0.0 **** 0.06
20408 H 41.70469847041734 138.16299943580142 18.446093521806574 H 0.0 **** 0.06
20409 H 42.28803776721652 139.77410009260376 18.92937355548156 H 0.0 **** 0.06
20410 H 43.4445771330807 138.43784153868214 18.711328923109875 H 0.0 **** 0.06
20411 C 5.7849341869631985 55.88697056387912 38.10438018402539 C 0.0 **** -0.24
20412 H 6.667264284614674 55.259399012890185 37.98283030274101 H 0.0 **** 0.06
20413 H 4.963425007957142 55.476970345841664 37.516359465553705 H 0.0 **** 0.06
20414 H 6.0082488051797895 56.89743438565279 37.76241191877273 H 0.0 **** 0.06
20415 H 5.499914705771658 55.914120717727485 39.15638476483329 H 0.0 **** 0.06
20416 C 90.55831712519151 132.46226878997746 33.75385296704064 C 0.0 **** -0.24
20417 H 91.25238146595035 132.66551724547884 34.5685109136042 H 0.0 **** 0.06
20418 H 89.75906848839342 131.81177499616103 34.11231128683539 H 0.0 **** 0.06
20419 H 91.08816352682715 131.97028493740189 32.93889806017984 H 0.0 **** 0.06
20420 H 90.13176551101522 133.39898711835997 33.3971495818065 H 0.0 **** 0.06
20421 C 79.58613883930025 139.19761178131245 65.74811996164118 C 0.0 **** -0.24
20422 H 79.4297692242236 138.41296866572353 65.00666623153023 H 0.0 **** 0.06
20423 H 80.65476392344158 139.35311876607082 65.89269807628023 H 0.0 **** 0.06
20424 H 79.12996266195279 138.9001180814363 66.69230619814294 H 0.0 **** 0.06
20425 H 79.12759554902368 140.12301732497218 65.39827354589448 H 0.0 **** 0.06
20426 C 105.50886276538779 86.32931225808443 159.38256148527404 C 0.0 **** -0.24
20427 H 106.5102887740644 86.03242661133413 159.07235076437564 H 0.0 **** 0.06
20428 H 104.81080810592687 85.51529147521569 159.18409297513512 H 0.0 **** 0.06
20429 H 105.20290833686693 87.21471853369025 158.82365046733435 H 0.0 **** 0.06
20430 H 105.51021668514545 86.55600149058466 160.44871110589548 H 0.0 **** 0.06
20431 C 25.388001494066245 107.06762527352717 99.5546659980215 C 0.0 **** -0.24
20432 H 24.567147469799963 106.56117504849053 99.0447956601297 H 0.0 **** 0.06
20433 H 26.19186229603112 106.35586706896046 99.74310148079815 H 0.0 **** 0.06
20434 H 25.03115843364303 107.4732517957734 100.50127204357318 H 0.0 **** 0.06
20435 H 25.759388946009345 107.87819524147969 98.92809634779167 H 0.0 **** 0.06
20436 C 27.07957083019693 133.09487222280907 50.737291489909424 C 0.0 **** -0.24
20437 H 27.707798747987354 132.21342676576108 50.87346236615177 H 0.0 **** 0.06
20438 H 26.488444636028163 133.26129961951048 51.638377850787066 H 0.0 **** 0.06
20439 H 26.412732189517328 132.93736773190702 49.889107876218844 H 0.0 **** 0.06
20440 H 27.709338737717935 133.9644499267794 50.548789867982094 H 0.0 **** 0.06
20441 C 101.22410581581815 67.40578521964034 59.37763744752094 C 0.0 **** -0.24
20442 H 100.24613893450103 67.01642370346889 59.09430327971717 H 0.0 **** 0.06
20443 H 101.54632616022084 68.14585200690297 58.64503110028126 H 0.0 **** 0.06
20444 H 101.94380890648674 66.58792256303727 59.410271588145775 H 0.0 **** 0.06
20445 H 101.15835861514512 67.8712713779204 60.36097146668389 H 0.0 **** 0.06
20446 C 19.764272583130037 79.88710513758224 17.706306873494555 C 0.0 **** -0.24
20447 H 20.165116717575643 80.25505410076718 18.651191744496316 H 0.0 **** 0.06
20448 H 18.684552095789257 79.76106147625097 17.794814292718087 H 0.0 **** 0.06
20449 H 20.223563494578684 78.92807625093391 17.466070910187568 H 0.0 **** 0.06
20450 H 19.983172883013545 80.60346435579694 16.914867067910393 H 0.0 **** 0.06
20451 C 137.8872423714883 33.630412941803115 47.97875174661746 C 0.0 **** -0.24
20452 H 137.88145873993523 32.5617062552497 47.76317475367236 H 0.0 **** 0.06
20453 H 138.87231553071078 34.0393181758144 47.758041117809725 H 0.0 **** 0.06
20454 H 137.6542614418054 33.78910168607419 49.031942442539545 H 0.0 **** 0.06
20455 H 137.13936622960676 34.12914468517425 47.36278359699236 H 0.0 **** 0.06
20456 C 97.57394276540106 28.64890293019488 97.16166829036334 C 0.0 **** -0.24
20457 H 96.79132902160134 28.179093707891163 96.56625845926953 H 0.0 **** 0.06
20458 H 97.71099032888662 28.09052368238666 98.08852128995508 H 0.0 **** 0.06
20459 H 97.28817581159225 29.67418454146072 97.39455386612764 H 0.0 **** 0.06
20460 H 98.50697745477405 28.650796520235275 96.5976190398888 H 0.0 **** 0.06
20461 C 13.94434372804534 111.27000568867106 123.03010082637442 C 0.0 **** -0.24
20462 H 14.530335077657867 111.29388795531082 123.94915775992709 H 0.0 **** 0.06
20463 H 14.390001502495295 110.55770385233882 122.33392615386353 H 0.0 **** 0.06
20464 H 13.936064222153504 112.26241790590888 122.57878462579706 H 0.0 **** 0.06
20465 H 12.922727202695398 110.96576620680872 123.2571687903312 H 0.0 **** 0.06
20466 C 53.300457935004744 8.394242346824285 77.19264681814776 C 0.0 **** -0.24
20467 H 54.30463245608189 7.987600765716898 77.31448287888541 H 0.0 **** 0.06
20468 H 52.56635477469973 7.635652568234761 77.46420519859176 H 0.0 **** 0.06
20469 H 53.15200602842117 8.688694248829556 76.15385812149913 H 0.0 **** 0.06
20470 H 53.18048676753821 9.264616325177627 77.83769635934425 H 0.0 **** 0.06
20471 C 159.96495110390148 93.1561443935944 107.79096814307545 C 0.0 **** -0.24
20472 H 159.2650206217917 93.34315703502969 106.97674677272425 H 0.0 **** 0.06
20473 H 159.41057352674366 92.99976922986714 108.71665933554641 H 0.0 **** 0.06
20474 H 160.62729712449203 94.01552951176595 107.90445772244578 H 0.0 **** 0.06
20475 H 160.5557895578509 92.26871573316707 107.56591231716692 H 0.0 **** 0.06
20476 C 120.2488561325959 20.58550702383986 108.80904004595351 C 0.0 **** -0.24
20477 H 119.88315806406925 19.593845247877724 109.0744316139095 H 0.0 **** 0.06
20478 H 119.54696209059318 21.059259064481132 108.12220044596586 H 0.0 **** 0.06
20479 H 121.22359144152637 20.496001430745267 108.32868423495097 H 0.0 **** 0.06
20480 H 120.34251801212767 21.19191529051752 109.71026273794178 H 0.0 **** 0.06
20481 C 94.0519790162964 32.6011824029917 77.43042785717101 C 0.0 **** -0.24
20482 H 95.01494453701973 32.11923710572779 77.26207113265862 H 0.0 **** 0.06
20483 H 93.29495252818941 32.129316168546154 76.80293439024578 H 0.0 **** 0.06
20484 H 94.12578426473749 33.65867432493019 77.17740322229541 H 0.0 **** 0.06
20485 H 93.77252252922622 32.49633038744821 78.47856476133177 H 0.0 **** 0.06
20486 C 121.96540338061337 116.35690932951317 126.97395306524305 C 0.0 **** -0.24
20487 H 120.97145568739941 115.9104726997925 127.00956467696051 H 0.0 **** 0.06
20488 H 122.22580644253665 116.74044548633921 127.96050469613857 H 0.0 **** 0.06
20489 H 121.97116660581284 117.17420447908651 126.2523872009466 H 0.0 **** 0.06
20490 H 122.69165760411786 115.6018695882913 126.67285399416932 H 0.0 **** 0.06
20491 C 155.75628478296537 113.94127889505114 140.28003793786726 C 0.0 **** -0.24
20492 H 155.34407056633495 112.94242744253813 140.42062616578977 H 0.0 **** 0.06
20493 H 155.3701701231606 114.36636513449025 139.35353158749032 H 0.0 **** 0.06
20494 H 156.84306833363644 113.88127086057489 140.22882873804073 H 0.0 **** 0.06
20495 H 155.46607878753176 114.57433680511531 141.11926797453268 H 0.0 **** 0.06
20496 C 68.50221108697073 62.192058883200986 65.03520373952745 C 0.0 **** -0.24
20497 H 67.82754596493126 61.37243066324771 64.78605230291282 H 0.0 **** 0.06
20498 H 69.39125483851512 62.133219807934665 64.40692430975986 H 0.0 **** 0.06
20499 H 68.79188049186942 62.11852605288209 66.08302308876864 H 0.0 **** 0.06
20500 H 67.99759413273371 63.142276105459416 64.86359143600436 H 0.0 **** 0.06
20501 C 162.41124990566004 14.123899717216943 19.14678936704979 C 0.0 **** -0.24
20502 H 162.52942899020212 13.523808184570441 18.244776229501753 H 0.0 **** 0.06
20503 H 161.4097714852906 13.975614889543408 19.55195040851939 H 0.0 **** 0.06
20504 H 162.55409261354652 15.176702195761152 18.90443272750622 H 0.0 **** 0.06
20505 H 163.15108754852116 13.817204854849479 19.88668355038186 H 0.0 **** 0.06
20506 C 86.32876190498877 36.65258070445579 111.48755039546717 C 0.0 **** -0.24
20507 H 86.40806430272083 37.53493127205154 112.12367577876444 H 0.0 **** 0.06
20508 H 87.27217277829584 36.107574301427476 111.50532055728473 H 0.0 **** 0.06
20509 H 86.10552353778714 36.96098517324836 110.46605924047924 H 0.0 **** 0.06
20510 H 85.52940519404855 36.00979321923141 111.85561280698832 H 0.0 **** 0.06
20511 C 71.47508661007757 157.7909395990837 57.021703443397755 C 0.0 **** -0.24
20512 H 70.83829245948112 156.9238605737895 56.849959473663276 H 0.0 **** 0.06
20513 H 70.86269440205287 158.63317902617916 57.34613746378314 H 0.0 **** 0.06
20514 H 71.99152866071476 158.0506812578482 56.09784050830834 H 0.0 **** 0.06
20515 H 72.20847252426758 157.5553943316614 57.79396015751661 H 0.0 **** 0.06
20516 C 92.63927640601453 153.9513904087815 102.88963221302691 C 0.0 **** -0.24
20517 H 92.7757203118139 153.20749958591213 102.10490655997859 H 0.0 **** 0.06
20518 H 92.72546338251772 153.47137903004818 103.86436229480162 H 0.0 **** 0.06
20519 H 91.65131741021216 154.40324773532666 102.7929632952949 H 0.0 **** 0.06
20520 H 93.40315682127837 154.72382434033992 102.79497272107474 H 0.0 **** 0.06
20521 C 84.00129735135673 40.71271312115839 82.6512490939059 C 0.0 **** -0.24
20522 H 84.09244022580145 40.608788401799345 83.7323062041857 H 0.0 **** 0.06
20523 H 84.96132477586461 41.01588549421015 82.23318005686389 H 0.0 **** 0.06
20524 H 83.24979377309688 41.46921322804157 82.42206170210127 H 0.0 **** 0.06
20525 H 83.69995062256417 39.759439838277956 82.21847546394204 H 0.0 **** 0.06
20526 C 18.092502630770397 78.770284594386 69.73027625353012 C 0.0 **** -0.24
20527 H 17.378745614239783 78.85611013610756 68.91097060062305 H 0.0 **** 0.06
20528 H 18.149578744611837 77.7301333105525 70.0539868279194 H 0.0 **** 0.06
20529 H 17.765123002521356 79.39287562121137 70.56289792441922 H 0.0 **** 0.06
20530 H 19.074783577087906 79.10039013356584 69.39282652421684 H 0.0 **** 0.06
20531 C 37.88788630274246 37.07058780379873 113.49869733845617 C 0.0 **** -0.24
20532 H 37.854004328512076 36.00083059625524 113.29275467709218 H 0.0 **** 0.06
20533 H 37.56105173977693 37.62076780500365 112.61580945314662 H 0.0 **** 0.06
20534 H 38.908612368137995 37.35982908481952 113.75016434836962 H 0.0 **** 0.06
20535 H 37.228598798724505 37.30043158143553 114.33494888056612 H 0.0 **** 0.06
20536 C 84.39669692757943 9.523178752560042 145.85271970332957 C 0.0 **** -0.24
20537 H 84.71382183453946 10.081755839130416 146.7335762746288 H 0.0 **** 0.06
20538 H 84.76545028113947 10.0215428707358 144.95557754107733 H 0.0 **** 0.06
20539 H 83.30855277843222 9.47862425369356 145.8236159814462 H 0.0 **** 0.06
20540 H 84.80158402935427 8.512413511261137 145.8988164029392 H 0.0 **** 0.06
20541 C 114.57700828633995 96.83075024298134 107.26849736081743 C 0.0 **** -0.24
20542 H 114.51305859634977 96.61932198221777 106.20035016462589 H 0.0 **** 0.06
20543 H 115.49382836750573 97.38287409556597 107.47426673458565 H 0.0 **** 0.06
20544 H 114.58258037357916 95.89314266944587 107.8241139895776 H 0.0 **** 0.06
20545 H 113.71615220210595 97.42798389123851 107.57137632942664 H 0.0 **** 0.06
20546 C 28.353870339782077 42.52408676366298 149.1390238143618 C 0.0 **** -0.24
20547 H 29.33130507469218 42.73709476120706 149.5721921378141 H 0.0 **** 0.06
20548 H 27.69478465923902 42.122190002146965 149.90966767902373 H 0.0 **** 0.06
20549 H 28.463731683075196 41.792950242711186 148.33750790202419 H 0.0 **** 0.06
20550 H 27.926661444686488 43.442200229683124 148.73731242489225 H 0.0 **** 0.06
20551 C 43.31661840862368 36.70437895652131 126.29938280251795 C 0.0 **** -0.24
20552 H 43.15415913709397 36.36766010437542 127.32280267099895 H 0.0 **** 0.06
20553 H 43.80584941644332 35.91338700684348 125.73066439846025 H 0.0 **** 0.06
20554 H 43.94986807696296 37.592014071386586 126.30500786993497 H 0.0 **** 0.06
20555 H 42.358931201046786 36.945147985887175 125.83932269422417 H 0.0 **** 0.06
20556 C 153.3030520227092 81.4390532151427 151.76172230184588 C 0.0 **** -0.24
20557 H 153.82913242697862 82.16429649235894 152.38142821025357 H 0.0 **** 0.06
20558 H 153.8452311050048 80.49332786185194 151.7705123372096 H 0.0 **** 0.06
20559 H 153.2401963958954 81.81224070899722 150.74010295736622 H 0.0 **** 0.06
20560 H 152.29852847709805 81.2852597743312 152.15504895918377 H 0.0 **** 0.06
20561 C 51.023058058592 85.13865739677246 140.23681465164776 C 0.0 **** -0.24
20562 H 50.22846833552998 85.75937173090131 139.82126467787646 H 0.0 **** 0.06
20563 H 51.12386539008479 85.34493449331269 141.30284913919706 H 0.0 **** 0.06
20564 H 51.962039912726055 85.36505645652251 139.73153907968276 H 0.0 **** 0.06
20565 H 50.776366785806516 84.0878679470868 140.09150895763452 H 0.0 **** 0.06
20566 C 27.090821986234282 4.5715852953811975 79.23038119242574 C 0.0 **** -0.24
20567 H 27.32189860882302 5.3050498785948434 80.00256131473361 H 0.0 **** 0.06
20568 H 26.24167573766111 4.920039702765166 78.64132425856337 H 0.0 **** 0.06
20569 H 26.841639057230147 3.619130086290454 79.69869498991989 H 0.0 **** 0.06
20570 H 27.95604732861328 4.442527871330469 78.58087436816146 H 0.0 **** 0.06
20571 C 135.8173661479232 145.39922939312643 59.99103505015121 C 0.0 **** -0.24
20572 H 136.29335256057527 144.42442882800668 59.87838208303205 H 0.0 **** 0.06
20573 H 136.028073111737 146.0097306153243 59.11262642805514 H 0.0 **** 0.06
20574 H 136.20896551809471 145.89353868751354 60.88028761355868 H 0.0 **** 0.06
20575 H 134.74019627808372 145.26728571824378 60.09284758916661 H 0.0 **** 0.06
20576 C 115.98005768832292 136.05829277761 153.16958189604068 C 0.0 **** -0.24
20577 H 116.21312611820406 135.27381118086709 152.44875138593932 H 0.0 **** 0.06
20578 H 114.90840042731548 136.2598304119348 153.15174397296425 H 0.0 **** 0.06
20579 H 116.52502596569985 136.96526957797585 152.90810051589105 H 0.0 **** 0.06
20580 H 116.27261851645838 135.73333390902752 154.16799400980065 H 0.0 **** 0.06
20581 C 70.21012144532082 33.71014188875114 40.08352717120968 C 0.0 **** -0.24
20582 H 69.23853010299644 33.40779754814284 39.69284697330089 H 0.0 **** 0.06
20583 H 70.0977602568988 34.62318080593138 40.668232871777505 H 0.0 **** 0.06
20584 H 70.89565878151427 33.88947878369936 39.25534682140909 H 0.0 **** 0.06
20585 H 70.6077654512581 32.91834102075882 40.71919022434632 H 0.0 **** 0.06
20586 C 28.037929772128393 115.02309433008901 117.0999329734675 C 0.0 **** -0.24
20587 H 28.692664753264637 114.90433405118861 117.96382995034003 H 0.0 **** 0.06
20588 H 28.57176662385865 114.72941419595332 116.19612710369506 H 0.0 **** 0.06
20589 H 27.73105178498767 116.06627579711338 117.01817593425926 H 0.0 **** 0.06
20590 H 27.15680973235888 114.39408270028486 117.22289504970956 H 0.0 **** 0.06
20591 C 106.81202580579642 134.18994932253673 73.80356411964205 C 0.0 **** -0.24
20592 H 106.34506271261017 133.47939987973984 74.48597516181106 H 0.0 **** 0.06
20593 H 106.05149292917176 134.62088378947914 73.1522492254223 H 0.0 **** 0.06
20594 H 107.55891674602333 133.67420955042502 73.19905745981451 H 0.0 **** 0.06
20595 H 107.29259562797941 134.98232541747745 74.37661874079004 H 0.0 **** 0.06
20596 C 94.85784546496089 67.18104093315537 98.20685101649721 C 0.0 **** -0.24
20597 H 95.90894132353579 67.16773372340435 97.91928492455276 H 0.0 **** 0.06
20598 H 94.23857676140793 67.28513488854873 97.31569581746189 H 0.0 **** 0.06
20599 H 94.67563562057886 68.02172771779772 98.87589970150609 H 0.0 **** 0.06
20600 H 94.60829134789977 66.25056452417505 98.71656588186354 H 0.0 **** 0.06
20601 C 24.574775005439847 121.62326916269964 117.88409578556735 C 0.0 **** -0.24
20602 H 23.507436204983378 121.8056464703256 118.00767267590948 H 0.0 **** 0.06
20603 H 25.07026986148412 122.54866204059996 117.58955251067107 H 0.0 **** 0.06
20604 H 24.72682461271404 120.86771276077161 117.11319806126079 H 0.0 **** 0.06
20605 H 24.994643310439756 121.27029159083406 118.82660113261937 H 0.0 **** 0.06
20606 C 111.62139929547729 31.338782472570728 85.04048303629295 C 0.0 **** -0.24
20607 H 111.71209672207789 31.709013515540306 84.01887262416068 H 0.0 **** 0.06
20608 H 111.5217212325548 30.25362358386912 85.02632980376502 H 0.0 **** 0.06
20609 H 110.74272547561881 31.780129882608065 85.50973627945507 H 0.0 **** 0.06
20610 H 112.51211723818068 31.614278278425317 85.60602038589292 H 0.0 **** 0.06
20611 C 53.53621092796698 63.235693926608505 105.90759280488496 C 0.0 **** -0.24
20612 H 52.71423387560395 62.74404637826609 106.42773630796017 H 0.0 **** 0.06
20613 H 54.38070437388836 63.34833671971822 106.58871417998421 H 0.0 **** 0.06
20614 H 53.21252926018536 64.21759701816259 105.56347316130703 H 0.0 **** 0.06
20615 H 53.83747991693144 62.63144623892819 105.0522276391248 H 0.0 **** 0.06
20616 C 46.5146806933124 56.47091139275558 54.05253231304954 C 0.0 **** -0.24
20617 H 47.463411873302405 56.067595720223906 53.70045926623658 H 0.0 **** 0.06
20618 H 45.929423981206085 55.67313070913839 54.510792549419534 H 0.0 **** 0.06
20619 H 45.96215798955613 56.88865517770047 53.21026057459369 H 0.0 **** 0.06
20620 H 46.70229184061674 57.252700385931576 54.787396132134404 H 0.0 **** 0.06
20621 C 125.24241961525601 43.249800773111076 160.70333463821441 C 0.0 **** -0.24
20622 H 125.88936384460646 44.074463758770605 161.00511937559412 H 0.0 **** 0.06
20623 H 125.79369337698827 42.31174210215846 160.77173082555043 H 0.0 **** 0.06
20624 H 124.913109550591 43.40475026449883 159.67543706536296 H 0.0 **** 0.06
20625 H 124.3738752832393 43.210452683824315 161.36110385416694 H 0.0 **** 0.06
20626 C 75.1506080152279 58.227617846066764 34.052907420184766 C 0.0 **** -0.24
20627 H 75.17968361316916 58.87363059045458 33.173951744831356 H 0.0 **** 0.06
20628 H 74.67716479224798 58.75956795371475 34.877808891750846 H 0.0 **** 0.06
20629 H 76.16744120971124 57.95081726377829 34.33230062705326 H 0.0 **** 0.06
20630 H 74.57894123004047 57.32814878918013 33.82326776158618 H 0.0 **** 0.06
20631 C 78.51908551458895 65.983693689688 53.48301392936749 C 0.0 **** -0.24
20632 H 78.3864927927989 64.90346030772407 53.536724677133236 H 0.0 **** 0.06
20633 H 78.22133151047595 66.33807916377535 52.49527945192601 H 0.0 **** 0.06
20634 H 79.56624559307645 66.2305062090223 53.656554098710885 H 0.0 **** 0.06
20635 H 77.90169011551848 66.46391712339711 54.24299765879816 H 0.0 **** 0.06
20636 C 19.556564295181907 104.57077293266195 28.375938622784567 C 0.0 **** -0.24
20637 H 19.110435659119403 105.4569123202711 28.828297004882877 H 0.0 **** 0.06
20638 H 19.113032077412313 103.67734273215373 28.814920958073316 H 0.0 **** 0.06
20639 H 20.63094939135673 104.571892653784 28.559100463037844 H 0.0 **** 0.06
20640 H 19.370647045486244 104.57969052771557 27.301619708351453 H 0.0 **** 0.06
20641 C 117.6801622475748 113.79377671262779 79.71210798513144 C 0.0 **** -0.24
20642 H 118.76491060027115 113.88702879717025 79.766870418948 H 0.0 **** 0.06
20643 H 117.26466647990662 114.67261888924091 79.21747216078731 H 0.0 **** 0.06
20644 H 117.2699558321491 113.71432286490611 80.7188014022489 H 0.0 **** 0.06
20645 H 117.42106340407082 112.90004080953901 79.14333929777689 H 0.0 **** 0.06
20646 C 21.017951127087485 0.20334880367411756 94.78926701733822 C 0.0 **** -0.24
20647 H 19.961860483139276 0.22076287662164873 94.5218233238127 H 0.0 **** 0.06
20648 H 21.215065510014483 0.9672618081701216 95.54120896284687 H 0.0 **** 0.06
20649 H 21.62056949197651 0.4005492693663655 93.9031417931372 H 0.0 **** 0.06
20650 H 21.27426091104371 -0.777358431865224 95.19139075624497 H 0.0 **** 0.06
20651 C 75.18766780141044 48.423205726900164 51.94540695505626 C 0.0 **** -0.24
20652 H 74.63489254814641 48.36685878643564 52.88299662477563 H 0.0 **** 0.06
20653 H 76.20510810360442 48.06436539755799 52.10160142624919 H 0.0 **** 0.06
20654 H 75.21609453268867 49.45789125957566 51.60329785703905 H 0.0 **** 0.06
20655 H 74.6943496085158 47.805619617450645 51.19524604150726 H 0.0 **** 0.06
20656 C 150.0189235611191 141.1339072803154 87.28133121686841 C 0.0 **** -0.24
20657 H 150.0478202875172 140.8855362540705 88.3422806357757 H 0.0 **** 0.06
20658 H 149.90190967681846 140.2197728164949 86.69853895940224 H 0.0 **** 0.06
20659 H 150.94848285149178 141.62852362861474 86.99944994395463 H 0.0 **** 0.06
20660 H 149.17836258921815 141.7998163390218 87.0871297195161 H 0.0 **** 0.06
20661 C 115.02308477586416 85.71245805628133 146.3844759245294 C 0.0 **** -0.24
20662 H 115.45078103056585 85.61218735191736 145.3871502297714 H 0.0 **** 0.06
20663 H 114.28721955619892 86.51734020048858 146.38547867224497 H 0.0 **** 0.06
20664 H 115.8149002099102 85.94207919075974 147.09801732567428 H 0.0 **** 0.06
20665 H 114.53946148200657 84.7769778688709 146.66845872603264 H 0.0 **** 0.06
20666 C 140.91693674872567 28.734537935046966 91.9610815918935 C 0.0 **** -0.24
20667 H 140.6093450894919 29.51310113803737 92.65853376888273 H 0.0 **** 0.06
20668 H 141.61882178587595 28.061300447234693 92.45441572894158 H 0.0 **** 0.06
20669 H 141.3983981314421 29.190678815104228 91.0957606647629 H 0.0 **** 0.06
20670 H 140.04159818922284 28.17216342572788 91.63566619314409 H 0.0 **** 0.06
20671 C 138.12873644237445 42.77681850705744 75.57689118313053 C 0.0 **** -0.24
20672 H 137.65097695725694 43.32241531655082 76.39131544934548 H 0.0 **** 0.06
20673 H 137.94111507301128 41.709136567769136 75.69606497139125 H 0.0 **** 0.06
20674 H 139.20301420726824 42.96096563122519 75.59781929917631 H 0.0 **** 0.06
20675 H 137.72026359656192 43.11481363919613 74.62455979202286 H 0.0 **** 0.06
20676 C 117.74293908345169 126.6966438596111 156.15074782586018 C 0.0 **** -0.24
20677 H 118.28708827892041 126.76108645148355 155.20835052682511 H 0.0 **** 0.06
20678 H 116.67106634915689 126.70132586757086 155.95145710175748 H 0.0 **** 0.06
20679 H 118.00075151236035 127.54877248866728 156.7787226437967 H 0.0 **** 0.06
20680 H 118.01436010915194 125.7735284589019 156.66296012737385 H 0.0 **** 0.06
20681 C 101.8615113227834 153.93924165272003 73.79894252351565 C 0.0 **** -0.24
20682 H 102.39604048520212 154.11034155314283 72.86421835418764 H 0.0 **** 0.06
20683 H 100.78779816379682 154.00063832824245 73.61916103955602 H 0.0 **** 0.06
20684 H 102.15272279124741 154.6955330623806 74.52688276641356 H 0.0 **** 0.06
20685 H 102.1103944964498 152.94951780713225 74.18214708831329 H 0.0 **** 0.06
20686 C 17.23128929210276 95.7244984412182 38.92355545373822 C 0.0 **** -0.24
20687 H 18.281142600679203 95.51209734134238 39.12050874421554 H 0.0 **** 0.06
20688 H 17.029864973381905 95.60471095365517 37.85856714943469 H 0.0 **** 0.06
20689 H 17.00453978677396 96.7475540073201 39.223986532171 H 0.0 **** 0.06
20690 H 16.608084690157966 95.03305302083328 39.49057671205436 H 0.0 **** 0.06
20691 C 12.003151938404933 71.20257491564453 56.624133077787064 C 0.0 **** -0.24
20692 H 11.91512486569583 71.99135694555187 57.37112972735946 H 0.0 **** 0.06
20693 H 11.01333913212676 70.8092101248585 56.3929175928302 H 0.0 **** 0.06
20694 H 12.631521071824416 70.40106896165277 57.01475738123409 H 0.0 **** 0.06
20695 H 12.454862512906715 71.60870163368503 55.718718520005496 H 0.0 **** 0.06
20696 C 6.733834171930873 108.36537307360817 80.55832807554421 C 0.0 **** -0.24
20697 H 7.40735482993999 108.95794573114969 81.17862193169235 H 0.0 **** 0.06
20698 H 6.8404695893053145 108.66874362057976 79.5164796808369 H 0.0 **** 0.06
20699 H 5.705654031337666 108.52648763276639 80.88136450381485 H 0.0 **** 0.06
20700 H 6.985219575287168 107.30955374361167 80.65725616173194 H 0.0 **** 0.06
20701 C 122.89378547562126 4.567145429626748 90.40418277337727 C 0.0 **** -0.24
20702 H 122.85273490155669 3.5620213048990763 89.98359957978465 H 0.0 **** 0.06
20703 H 121.88046564253841 4.941202629629771 90.5503093709317 H 0.0 **** 0.06
20704 H 123.42888081538547 5.22468132701033 89.71885045637364 H 0.0 **** 0.06
20705 H 123.41302087303319 4.53923242441283 91.3619934606094 H 0.0 **** 0.06
20706 C 99.73161879076994 154.38306328795042 47.265737632357116 C 0.0 **** -0.24
20707 H 98.83785098997086 154.2370633929295 46.65995386326307 H 0.0 **** 0.06
20708 H 100.61581386805659 154.16718439895828 46.66538336323083 H 0.0 **** 0.06
20709 H 99.70182962102453 153.71298469385792 48.124486207939896 H 0.0 **** 0.06
20710 H 99.77089209827915 155.41592574755288 47.612711150011194 H 0.0 **** 0.06
20711 C 94.42287008056971 103.4057134471561 44.37040712396178 C 0.0 **** -0.24
20712 H 95.21803918012738 103.81542787007751 43.74775309218086 H 0.0 **** 0.06
20713 H 93.664114006495 104.17043842640098 44.54027419063519 H 0.0 **** 0.06
20714 H 94.83848791442031 103.08774896373535 45.32689616088069 H 0.0 **** 0.06
20715 H 93.97163457390994 102.55062327574154 43.867909215624564 H 0.0 **** 0.06
20716 C 2.2746885894242723 159.74756451721132 104.99985780785573 C 0.0 **** -0.24
20717 H 1.9122774841205796 160.683970496368 105.42247684399359 H 0.0 **** 0.06
20718 H 3.179686298513616 159.93594112489825 104.42186276402407 H 0.0 **** 0.06
20719 H 1.5099210414742856 159.3220835170181 104.35089452658605 H 0.0 **** 0.06
20720 H 2.49713413581577 159.0468652654737 105.80518533186486 H 0.0 **** 0.06
20721 C 59.787500797641584 80.76507045652816 131.3348761242461 C 0.0 **** -0.24
20722 H 60.44346301997335 81.26219320043487 130.6200031235689 H 0.0 **** 0.06
20723 H 60.11027152726504 79.73317900594226 131.46828117005057 H 0.0 **** 0.06
20724 H 58.76358008985356 80.78138226677665 130.95998520845913 H 0.0 **** 0.06
20725 H 59.83237403081928 81.28697659005768 132.29129981076508 H 0.0 **** 0.06
20726 C 87.80910481929851 27.941873183452024 32.93690541263727 C 0.0 **** -0.24
20727 H 86.91389002176254 27.320145560369134 32.932101130839484 H 0.0 **** 0.06
20728 H 88.33948880694652 27.807349246026142 33.87952197657657 H 0.0 **** 0.06
20729 H 87.52483368791758 28.98830237036504 32.825906593565634 H 0.0 **** 0.06
20730 H 88.45721149177453 27.651621983161256 32.110028254249514 H 0.0 **** 0.06
20731 C 136.3650923577017 76.8810046633318 107.06777030102512 C 0.0 **** -0.24
20732 H 135.4591565565573 76.75133329661236 107.6600544590001 H 0.0 **** 0.06
20733 H 137.1016374306812 77.4380376227403 107.64775006400052 H 0.0 **** 0.06
20734 H 136.12787856134375 77.43026007181894 106.15711836921054 H 0.0 **** 0.06
20735 H 136.77084616801346 75.90336710755108 106.8066428879828 H 0.0 **** 0.06
20736 C 51.547993172809456 18.257972685926575 112.3144207405322 C 0.0 **** -0.24
20737 H 50.919850151522084 19.054955156926326 112.71235307323903 H 0.0 **** 0.06
20738 H 52.078417062542826 18.620023921590928 111.43394857028912 H 0.0 **** 0.06
20739 H 50.92395540726254 17.407164953595725 112.03945174244379 H 0.0 **** 0.06
20740 H 52.26909295811811 17.950399551678345 113.07230645026806 H 0.0 **** 0.06
20741 C 157.09324872544963 137.98880455862923 158.45917464245971 C 0.0 **** -0.24
20742 H 158.10431415746848 137.60898189431867 158.60273042369198 H 0.0 **** 0.06
20743 H 156.68015102585628 137.5808839448061 157.53596125562242 H 0.0 **** 0.06
20744 H 157.12040150893114 139.0770441403065 158.39502461688687 H 0.0 **** 0.06
20745 H 156.47001445466535 137.68960907297338 159.30104572418566 H 0.0 **** 0.06
20746 C 88.2862692442029 72.7977669594352 14.703581477549527 C 0.0 **** -0.24
20747 H 88.74560487287238 72.10123611506657 15.4059606206012 H 0.0 **** 0.06
20748 H 88.90656487548233 73.68952240472788 14.620038809041972 H 0.0 **** 0.06
20749 H 87.29546193039552 73.07478441614205 15.064455511756876 H 0.0 **** 0.06
20750 H 88.19685670374729 72.3223735212157 13.726824429571202 H 0.0 **** 0.06
20751 C 143.35309680441625 68.15532114056329 118.20056403239542 C 0.0 **** -0.24
20752 H 143.3267671473689 67.11455270125879 118.52271407175311 H 0.0 **** 0.06
20753 H 144.3879000702213 68.49465826719862 118.15111324018713 H 0.0 **** 0.06
20754 H 142.80234357088668 68.77081361855754 118.91173893071249 H 0.0 **** 0.06
20755 H 142.8951401910968 68.24224790426912 117.21446090310783 H 0.0 **** 0.06
20756 C 62.260568804501645 88.437792241398 112.79934743349833 C 0.0 **** -0.24
20757 H 61.87714592964488 88.1190823433339 111.82997198449922 H 0.0 **** 0.06
20758 H 63.169844795740175 89.02182711265641 112.65581587513014 H 0.0 **** 0.06
20759 H 62.48349438818613 87.56112001440471 113.40792927856862 H 0.0 **** 0.06
20760 H 61.51098614654509 89.04872066865539 113.30325037995127 H 0.0 **** 0.06
20761 C 15.740766852618712 107.8393034845459 26.64686274363278 C 0.0 **** -0.24
20762 H 16.543588134205592 107.10438215483055 26.707702630469292 H 0.0 **** 0.06
20763 H 15.243507243880146 107.9136971579328 27.614322995667543 H 0.0 **** 0.06
20764 H 15.020788318017907 107.5287946892222 25.890756927812795 H 0.0 **** 0.06
20765 H 16.156908023440558 108.80992083098329 26.376356996944182 H 0.0 **** 0.06
20766 C 139.69996790304577 138.08628948639497 45.82362244623846 C 0.0 **** -0.24
20767 H 139.90216883383923 138.51926018465846 46.803651035181645 H 0.0 **** 0.06
20768 H 139.26479740189546 137.0949753047019 45.948140189178545 H 0.0 **** 0.06
20769 H 140.63186954291487 138.0074622455724 45.26320878276978 H 0.0 **** 0.06
20770 H 139.0033205671873 138.72565279265882 45.28121400767945 H 0.0 **** 0.06
20771 C 105.72050802149855 58.6365906448472 69.58157321438593 C 0.0 **** -0.24
20772 H 106.14738829772602 58.76665470087595 70.57541293463386 H 0.0 **** 0.06
20773 H 105.41352168247644 57.597937177235835 69.4516337176207 H 0.0 **** 0.06
20774 H 106.46699842365837 58.89103358986921 68.82930416879543 H 0.0 **** 0.06
20775 H 104.8543162197781 59.288511168728576 69.47003291742504 H 0.0 **** 0.06
20776 C 144.36824615681257 78.85470329220163 140.4143827954956 C 0.0 **** -0.24
20777 H 143.88592704991393 79.13232336475467 139.47669347785882 H 0.0 **** 0.06
20778 H 144.113694844189 79.58468480563359 141.1824403841528 H 0.0 **** 0.06
20779 H 145.44965096815451 78.83644357540928 140.27463978585735 H 0.0 **** 0.06
20780 H 144.02478396812955 77.86737467893762 140.72180882874295 H 0.0 **** 0.06
20781 C 135.76024360805258 147.45298675159313 110.79277469358198 C 0.0 **** -0.24
20782 H 136.17158154244467 148.23973580642595 110.16019830206216 H 0.0 **** 0.06
20783 H 135.55794666669732 146.5699423645716 110.18696828752263 H 0.0 **** 0.06
20784 H 134.8345449696165 147.80207268905417 111.25016609212577 H 0.0 **** 0.06
20785 H 136.47928219871824 147.20242389096947 111.57315898027221 H 0.0 **** 0.06
20786 C 39.035990962289304 6.738316348470335 94.74389323012977 C 0.0 **** -0.24
20787 H 39.06865727854753 7.828510014722497 94.73935635281615 H 0.0 **** 0.06
20788 H 39.84409620327634 6.348564268439134 94.12551950162134 H 0.0 **** 0.06
20789 H 38.07810991285879 6.40228930277658 94.34580957017869 H 0.0 **** 0.06
20790 H 39.15201898448856 6.376091560580278 95.7650761414389 H 0.0 **** 0.06
20791 C 73.8031230152201 11.790685657091096 150.12560731577173 C 0.0 **** -0.24
20792 H 74.21794265179312 10.810538956214423 150.36190370755781 H 0.0 **** 0.06
20793 H 74.43603783944891 12.56644040994027 150.55760300048632 H 0.0 **** 0.06
20794 H 72.79773186018348 11.868617033401463 150.53837378301048 H 0.0 **** 0.06
20795 H 73.76224299834863 11.915669695717234 149.04325308043116 H 0.0 **** 0.06
20796 C 39.957390397133565 115.93650079963899 66.93065313980146 C 0.0 **** -0.24
20797 H 40.92124320005004 115.80311789080983 66.43869719499551 H 0.0 **** 0.06
20798 H 39.691913362417864 116.99385379837642 66.927125026079 H 0.0 **** 0.06
20799 H 40.02290557014595 115.58109537575294 67.9587409700083 H 0.0 **** 0.06
20800 H 39.19557469480222 115.36832135887857 66.39731103487809 H 0.0 **** 0.06
20801 C 113.18599093256577 146.29121518148443 103.50593690223562 C 0.0 **** -0.24
20802 H 113.08136283666309 146.1475096537908 104.58155930467944 H 0.0 **** 0.06
20803 H 112.23665576073577 146.63105224083094 103.09151396402339 H 0.0 **** 0.06
20804 H 113.47003952946534 145.34733858132353 103.03888844326403 H 0.0 **** 0.06
20805 H 113.95593410628464 147.0382656242904 103.31250472442332 H 0.0 **** 0.06
20806 C 158.09115998282704 81.14409141462852 147.41728292168725 C 0.0 **** -0.24
20807 H 157.97950247246638 80.22117297947263 147.9861203412336 H 0.0 **** 0.06
20808 H 158.8964428147549 81.02716851594693 146.6912646801598 H 0.0 **** 0.06
20809 H 158.32851869365402 81.96298866080303 148.09640367645477 H 0.0 **** 0.06
20810 H 157.16010564555586 81.36346577402244 146.89461422218588 H 0.0 **** 0.06
20811 C 112.36004301228203 113.18150006337305 49.65132825708895 C 0.0 **** -0.24
20812 H 113.42283530485832 113.07929346565197 49.8698052539777 H 0.0 **** 0.06
20813 H 112.21168188508025 113.20539918254156 48.572028185332755 H 0.0 **** 0.06
20814 H 111.98671080768068 114.10734612325274 50.090711962186404 H 0.0 **** 0.06
20815 H 111.81834732383552 112.33541784046719 50.07435604970338 H 0.0 **** 0.06
20816 C 93.88546624314556 72.82154614435997 77.64714403566788 C 0.0 **** -0.24
20817 H 94.0753112426571 73.69396878205805 78.27217480687926 H 0.0 **** 0.06
20818 H 94.2481896505826 71.92637019184137 78.15213769339687 H 0.0 **** 0.06
20819 H 94.40396475952178 72.93744012873377 76.69489839654443 H 0.0 **** 0.06
20820 H 92.81434741054123 72.73010990380907 77.46791874037126 H 0.0 **** 0.06
20821 C 125.43426849393794 42.31006952697746 25.440031710839378 C 0.0 **** -0.24
20822 H 125.4631748582513 42.12668697616377 24.365910618482815 H 0.0 **** 0.06
20823 H 126.42280899468918 42.61717417258981 25.783298820860153 H 0.0 **** 0.06
20824 H 125.13691183119661 41.397389697146835 25.956685759825803 H 0.0 **** 0.06
20825 H 124.71398272141164 43.10000610683889 25.654292020304695 H 0.0 **** 0.06
20826 C 81.08351783575614 28.499652267767978 159.4995593352667 C 0.0 **** -0.24
20827 H 80.51102393295304 28.711351310572795 160.40264299869492 H 0.0 **** 0.06
20828 H 81.94628394868431 29.16456217901124 159.45323098807117 H 0.0 **** 0.06
20829 H 80.45415768366047 28.66019359481794 158.62464898897798 H 0.0 **** 0.06
20830 H 81.42240080212332 27.46416460515114 159.51880697939367 H 0.0 **** 0.06
20831 C 58.39350371406229 3.4923908668203936 129.6583749469573 C 0.0 **** -0.24
20832 H 59.39994116801273 3.9034020585891085 129.58472521956605 H 0.0 **** 0.06
20833 H 57.72898330354218 4.036503218255142 128.98600281930086 H 0.0 **** 0.06
20834 H 58.03484529828677 3.5916377985867314 130.6831754452662 H 0.0 **** 0.06
20835 H 58.40936791444125 2.438462314974842 129.3797841958835 H 0.0 **** 0.06
20836 C 22.30629925029762 155.50466588311465 53.18181157911313 C 0.0 **** -0.24
20837 H 21.798659697015232 154.99809301991516 52.361338632794585 H 0.0 **** 0.06
20838 H 22.26439665333087 156.58283657623716 53.023063274547326 H 0.0 **** 0.06
20839 H 23.34601708062847 155.18256647802423 53.219858987691296 H 0.0 **** 0.06
20840 H 21.81386517414183 155.25687987738849 54.122001785512296 H 0.0 **** 0.06
20841 C 117.51174214535538 21.96221740596448 145.47112584384638 C 0.0 **** -0.24
20842 H 118.00729463520986 22.876030185596562 145.14357923071498 H 0.0 **** 0.06
20843 H 118.23449577575059 21.146486436076145 145.49703030770684 H 0.0 **** 0.06
20844 H 116.70968774800212 21.715205871226203 144.77513811443657 H 0.0 **** 0.06
20845 H 117.0953858458291 22.11186631182005 146.46664101367745 H 0.0 **** 0.06
20846 C 96.59689953280133 21.73268170077207 9.209133489838614 C 0.0 **** -0.24
20847 H 95.63532300567005 21.94092896482188 8.73999650035526 H 0.0 **** 0.06
20848 H 96.48999826974341 21.78223616402289 10.29260860352278 H 0.0 **** 0.06
20849 H 97.32826734248965 22.470567924671187 8.881624926261892 H 0.0 **** 0.06
20850 H 96.93208232301595 20.735483253231536 8.922371156339032 H 0.0 **** 0.06
20851 C 71.41298242946061 102.70131794277188 112.14299840120219 C 0.0 **** -0.24
20852 H 70.64144183609639 102.90887300446911 111.40105575711559 H 0.0 **** 0.06
20853 H 72.39550990549844 102.80030793573633 111.68250456929846 H 0.0 **** 0.06
20854 H 71.28886435554352 101.68751025439735 112.52257514721197 H 0.0 **** 0.06
20855 H 71.32445530751849 103.41066057053274 112.96681930940653 H 0.0 **** 0.06
20856 C 70.88588299001583 153.57633219181366 30.555387932671437 C 0.0 **** -0.24
20857 H 71.78953984023512 154.18555814171998 30.570811665365227 H 0.0 **** 0.06
20858 H 70.97741652287931 152.77278132798727 31.2864169941939 H 0.0 **** 0.06
20859 H 70.75183072252307 153.1505162401175 29.56110396198659 H 0.0 **** 0.06
20860 H 70.02533742105402 154.19733462181694 30.80417129381786 H 0.0 **** 0.06
20861 C 148.67192905169097 79.5256637113501 142.95297138990833 C 0.0 **** -0.24
20862 H 149.7226879095422 79.75691145018133 142.7797658883381 H 0.0 **** 0.06
20863 H 148.40539673099386 79.79110663286689 143.9759632914509 H 0.0 **** 0.06
20864 H 148.5045026887555 78.45931363365546 142.79918972245508 H 0.0 **** 0.06
20865 H 148.05542398989869 80.09461870634351 142.25632111267055 H 0.0 **** 0.06
20866 C 68.2461887754447 75.5439497745195 131.91350807889523 C 0.0 **** -0.24
20867 H 67.73576793091462 75.18724824310901 131.01943794438006 H 0.0 **** 0.06
20868 H 67.52712088334056 76.0293021103986 132.57425187635374 H 0.0 **** 0.06
20869 H 69.01937304838833 76.25737288095083 131.63092116639095 H 0.0 **** 0.06
20870 H 68.70284684284599 74.70017037883649 132.43114367196182 H 0.0 **** 0.06
20871 C 28.978595377942383 113.98152399050764 144.95511565945355 C 0.0 **** -0.24
20872 H 28.039999053384975 113.64291988565293 145.39549628951406 H 0.0 **** 0.06
20873 H 28.7676716044503 114.65929468496154 144.12729929406729 H 0.0 **** 0.06
20874 H 29.5380871169682 113.1206968015054 144.58775694123943 H 0.0 **** 0.06
20875 H 29.566792119566855 114.50200882559926 145.71042285745892 H 0.0 **** 0.06
20876 C 56.637446478176486 16.720310052130202 133.18810297371027 C 0.0 **** -0.24
20877 H 55.909548458144684 17.53153808890488 133.22608242764852 H 0.0 **** 0.06
20878 H 57.34620806998804 16.82879417119716 134.00851569315552 H 0.0 **** 0.06
20879 H 57.17059473707724 16.756097132261573 132.2382513726264 H 0.0 **** 0.06
20880 H 56.12016349332528 15.76462669550179 133.27775517356224 H 0.0 **** 0.06
20881 C 160.2892248301511 116.48691337926925 136.40159944670205 C 0.0 **** -0.24
20882 H 161.37415213948822 116.56121380387106 136.31895517301433 H 0.0 **** 0.06
20883 H 159.8823613894357 117.44999691050069 136.7084105957589 H 0.0 **** 0.06
20884 H 160.03366402333756 115.73030745899834 137.14354891660338 H 0.0 **** 0.06
20885 H 159.87077104423554 116.20541836146725 135.43578279173013 H 0.0 **** 0.06
20886 C 42.19114536704359 157.67180101535627 64.12743088307892 C 0.0 **** -0.24
20887 H 43.12593125691407 157.72310312821676 64.68541321266396 H 0.0 **** 0.06
20888 H 42.0248643388032 158.61520126319652 63.60865597230108 H 0.0 **** 0.06
20889 H 41.36718483823148 157.48490107449 64.81675398753383 H 0.0 **** 0.06
20890 H 42.24666742352635 156.8616875387096 63.39970955074129 H 0.0 **** 0.06
20891 C 58.845763285048946 127.72599302490309 19.555836125470023 C 0.0 **** -0.24
20892 H 58.04921861825619 126.98996936647177 19.44600612404537 H 0.0 **** 0.06
20893 H 58.44395205252708 128.63070968206645 20.01287592914491 H 0.0 **** 0.06
20894 H 59.25727901562091 127.96528458481998 18.575430495305568 H 0.0 **** 0.06
20895 H 59.633457297506354 127.3173956518122 20.189978246008252 H 0.0 **** 0.06
20896 C 150.4392498698442 140.39761779531023 60.73111495289142 C 0.0 **** -0.24
20897 H 150.2618557232581 140.57576127860972 61.79124090809553 H 0.0 **** 0.06
20898 H 149.53954370487227 139.98189218478842 60.2772747889171 H 0.0 **** 0.06
20899 H 151.2641922252992 139.69423445068952 60.614278051428485 H 0.0 **** 0.06
20900 H 150.69196190071102 141.33867192279175 60.24249381400119 H 0.0 **** 0.06
20901 C 29.0813694067555 160.4676619295101 153.8578861434814 C 0.0 **** -0.24
20902 H 28.298565203527545 160.17557036620283 154.55780253160185 H 0.0 **** 0.06
20903 H 28.833186146276745 160.0983696475228 152.86240728324725 H 0.0 **** 0.06
20904 H 30.03209284268229 160.0412422894947 154.1779269157001 H 0.0 **** 0.06
20905 H 29.159823143885063 161.55416742228522 153.83360332749646 H 0.0 **** 0.06
20906 C 124.9467782473333 20.042258782764385 92.05537823660858 C 0.0 **** -0.24
20907 H 125.92149660981707 20.51126193538154 92.19135626971523 H 0.0 **** 0.06
20908 H 125.00875120594924 19.3017960239725 91.25692024886483 H 0.0 **** 0.06
20909 H 124.21129065612223 20.802101985045304 91.79148590587174 H 0.0 **** 0.06
20910 H 124.64738495890487 19.55228531789551 92.98219188364519 H 0.0 **** 0.06
20911 C 66.61392078744825 160.08961319686833 111.45923101224787 C 0.0 **** -0.24
20912 H 66.37746110939773 160.8217837784926 112.23188225463682 H 0.0 **** 0.06
20913 H 67.03229043774677 159.1962468403402 111.92239753876999 H 0.0 **** 0.06
20914 H 67.33976823101115 160.51448654527758 110.76601389117411 H 0.0 **** 0.06
20915 H 65.70503502731589 159.82693098654477 110.91856330835898 H 0.0 **** 0.06
20916 C 144.60590273038724 157.39994466375697 78.37856139369303 C 0.0 **** -0.24
20917 H 145.3871722331144 158.0799227178976 78.03668318131498 H 0.0 **** 0.06
20918 H 143.69883738878036 157.56833789094645 77.79801592204619 H 0.0 **** 0.06
20919 H 144.4014344045912 157.58417762249786 79.43334468093558 H 0.0 **** 0.06
20920 H 144.93740220165952 156.370079791887 78.24718676827912 H 0.0 **** 0.06
20921 C 59.57759964512681 45.4722618716857 8.506070193093713 C 0.0 **** -0.24
20922 H 58.75703267730253 44.75528345459776 8.533559425729557 H 0.0 **** 0.06
20923 H 59.19614777662213 46.45066450043643 8.213111767620582 H 0.0 **** 0.06
20924 H 60.324057391739245 45.14151118055878 7.78358857878478 H 0.0 **** 0.06
20925 H 60.03351711697266 45.539923414401855 9.494338912088068 H 0.0 **** 0.06
20926 C 31.897708063693045 87.97998858274383 19.28315560484009 C 0.0 **** -0.24
20927 H 31.647874768105055 87.80064580565283 20.32862455849005 H 0.0 **** 0.06
20928 H 31.96098799785534 87.02628344900529 18.75698349087213 H 0.0 **** 0.06
20929 H 32.8576269297285 88.49279273711511 19.222028465163532 H 0.0 **** 0.06
20930 H 31.125388737707738 88.59761809171522 18.824718581426623 H 0.0 **** 0.06
20931 C 26.801117475685537 54.81805763862552 103.66400924903087 C 0.0 **** -0.24
20932 H 26.56404751641888 53.79129595959181 103.94303281547883 H 0.0 **** 0.06
20933 H 27.613527476753973 55.18573600661237 104.29250867414214 H 0.0 **** 0.06
20934 H 25.920217517167572 55.44507602272813 103.80371637722124 H 0.0 **** 0.06
20935 H 27.10774502704077 54.849131278690564 102.6184754952501 H 0.0 **** 0.06
20936 C 15.19398513331626 78.65523149688458 85.70911180662509 C 0.0 **** -0.24
20937 H 14.558335196497552 79.28185136497186 86.33569507411319 H 0.0 **** 0.06
20938 H 15.430583889744469 79.1861923113624 84.78666369470714 H 0.0 **** 0.06
20939 H 14.670644463665354 77.72914640360703 85.4732691251752 H 0.0 **** 0.06
20940 H 16.115795666492403 78.42588388317971 86.24365634923687 H 0.0 **** 0.06
20941 C 29.84168422150995 131.67453333423973 15.28605275715347 C 0.0 **** -0.24
20942 H 30.246806295095666 132.26709865825205 14.46658020809275 H 0.0 **** 0.06
20943 H 29.04131182782899 132.23041077576497 15.776143777401387 H 0.0 **** 0.06
20944 H 30.631962026574598 131.46263122427473 16.006235610741953 H 0.0 **** 0.06
20945 H 29.445780152482513 130.7369198578464 14.894967326348251 H 0.0 **** 0.06
20946 C 26.78918719998171 162.05099818163444 133.94549914021482 C 0.0 **** -0.24
20947 H 26.745610926457687 162.10882398173345 132.85761855853804 H 0.0 **** 0.06
20948 H 26.807146442889348 161.00586176940482 134.25279894505908 H 0.0 **** 0.06
20949 H 25.913200562372424 162.54040719822987 134.37049215512624 H 0.0 **** 0.06
20950 H 27.69212604024412 162.55080181113888 134.2981543256349 H 0.0 **** 0.06
20951 C 14.197434340479305 81.37773978831449 24.150952754465365 C 0.0 **** -0.24
20952 H 13.305655744001037 81.91425792198353 23.825539001590634 H 0.0 **** 0.06
20953 H 14.878459039732505 81.26023239985777 23.307174185931608 H 0.0 **** 0.06
20954 H 13.91268221110149 80.39551381528823 24.526980935433187 H 0.0 **** 0.06
20955 H 14.691933889712985 81.9407779892194 24.942397655103534 H 0.0 **** 0.06
20956 C 35.57359671555314 40.90536661466459 112.40879725998352 C 0.0 **** -0.24
20957 H 35.676728217475045 41.0301807675493 111.33128848951642 H 0.0 **** 0.06
20958 H 36.328886324691524 41.5034422049621 112.91732062208482 H 0.0 **** 0.06
20959 H 35.707000261789844 39.8546403071372 112.66653856628938 H 0.0 **** 0.06
20960 H 34.58050918307502 41.231916126779296 112.71871894239251 H 0.0 **** 0.06
20961 C 146.05879888951637 80.16069604774765 124.20569952638238 C 0.0 **** -0.24
20962 H 145.20906443338745 80.84335623244054 124.2305852659949 H 0.0 **** 0.06
20963 H 146.94206416620813 80.69369491140596 123.85244105663932 H 0.0 **** 0.06
20964 H 145.83934744319393 79.33255533509488 123.53299689486255 H 0.0 **** 0.06
20965 H 146.2435732634226 79.77490421378543 125.20916352786418 H 0.0 **** 0.06
20966 C 90.90378513444081 13.47358873308471 27.324628895860485 C 0.0 **** -0.24
20967 H 90.95332354555427 12.777148172202317 28.16201253839023 H 0.0 **** 0.06
20968 H 91.88354104465543 13.92321407041996 27.16727188007429 H 0.0 **** 0.06
20969 H 90.17609017621005 14.25434619238996 27.54411618275298 H 0.0 **** 0.06
20970 H 90.600729978764 12.937684284710997 26.424940137446868 H 0.0 **** 0.06
20971 C 94.57914254244628 108.45742463855751 127.64633018974482 C 0.0 **** -0.24
20972 H 94.33571313442117 108.02784257284003 128.61756352811886 H 0.0 **** 0.06
20973 H 93.69022073000288 108.92419602903007 127.22185953086426 H 0.0 **** 0.06
20974 H 94.92994418707141 107.67027131377932 126.97812158631288 H 0.0 **** 0.06
20975 H 95.36103637123814 109.20672126393026 127.76621528328769 H 0.0 **** 0.06
20976 C 153.40312719547035 146.6830679852465 98.64027346227996 C 0.0 **** -0.24
20977 H 153.2213415820891 145.64830791824954 98.35116720511743 H 0.0 **** 0.06
20978 H 154.1445100823186 147.12092611316422 97.97188620099737 H 0.0 **** 0.06
20979 H 153.77361280339431 146.71393106276457 99.66458577809215 H 0.0 **** 0.06
20980 H 152.47381251007874 147.24730656094795 98.57304360962445 H 0.0 **** 0.06
20981 C 117.57738059599782 44.694566079553894 38.607679911213324 C 0.0 **** -0.24
20982 H 117.0324503884082 44.35909092342622 37.72491303115038 H 0.0 **** 0.06
20983 H 117.34849574370568 44.037744458994624 39.44715471828073 H 0.0 **** 0.06
20984 H 117.28070584479252 45.71452267771811 38.85141229441294 H 0.0 **** 0.06
20985 H 118.64866222354783 44.66594544950057 38.40513008574496 H 0.0 **** 0.06
20986 C 15.184805545370239 65.06452403150928 40.51941651633416 C 0.0 **** -0.24
20987 H 15.231229535596839 64.58881585690068 41.49912586462705 H 0.0 **** 0.06
20988 H 14.898392190217123 64.32591910485519 39.77130089531954 H 0.0 **** 0.06
20989 H 16.16252042606277 65.47680248513308 40.269510629602706 H 0.0 **** 0.06
20990 H 14.447090579044584 65.86692699789637 40.53993420994243 H 0.0 **** 0.06
20991 C 91.88471167896417 54.65151307571574 35.90200060765237 C 0.0 **** -0.24
20992 H 92.68765133420263 54.08235994110889 36.37056274676324 H 0.0 **** 0.06
20993 H 90.99782551939369 54.02288611964131 35.814742463549265 H 0.0 **** 0.06
20994 H 92.20063523910147 54.97459250899615 34.910153928375905 H 0.0 **** 0.06
20995 H 91.65305399795412 55.52378526114826 36.51256983846656 H 0.0 **** 0.06
20996 C 33.4259982317904 111.09073310681995 145.6533593390733 C 0.0 **** -0.24
20997 H 33.4298606965651 112.17522228417357 145.54769412638737 H 0.0 **** 0.06
20998 H 33.95778661872049 110.81191273121533 146.56283839501594 H 0.0 **** 0.06
20999 H 33.91903238434509 110.64094763159767 144.79120956995055 H 0.0 **** 0.06
21000 H 32.39747451065719 110.73476162156703 145.70997296812018 H 0.0 **** 0.06
21001 C 39.696941923557745 93.59069789297865 25.72676471740519 C 0.0 **** -0.24
21002 H 40.27182052612295 94.21819945203184 26.408789849515784 H 0.0 **** 0.06
21003 H 40.05503169143495 93.73970909992447 24.70795058141647 H 0.0 **** 0.06
21004 H 38.64298623224478 93.86192659045696 25.785119160129 H 0.0 **** 0.06
21005 H 39.81972174895269 92.54433134993836 26.006146222275703 H 0.0 **** 0.06
21006 C 47.63056446124068 153.3423207444206 35.327102611284616 C 0.0 **** -0.24
21007 H 47.77054625249208 154.3772924517009 35.01562306226485 H 0.0 **** 0.06
21008 H 47.199379778181296 153.32047714941524 36.32859825343806 H 0.0 **** 0.06
21009 H 48.59385635359918 152.83147693724715 35.33542226522914 H 0.0 **** 0.06
21010 H 46.95961119798908 152.8404450820786 34.63089836437368 H 0.0 **** 0.06
21011 C 79.39104500366095 25.426558708423613 84.85820936026363 C 0.0 **** -0.24
21012 H 79.6986608516177 24.595806791232008 84.22395344462069 H 0.0 **** 0.06
21013 H 79.97496204488277 26.312040274119227 84.60667775626831 H 0.0 **** 0.06
21014 H 79.55785605961228 25.165590780398816 85.90383343372471 H 0.0 **** 0.06
21015 H 78.33236396714967 25.63225836726292 84.70051672996152 H 0.0 **** 0.06
21016 C 10.70064831845491 108.94460840969785 121.56419180332512 C 0.0 **** -0.24
21017 H 10.987274369538056 109.82080434268656 122.14599422492554 H 0.0 **** 0.06
21018 H 10.948376187560257 109.1093754716172 120.51492938842182 H 0.0 **** 0.06
21019 H 9.627926139453166 108.77819293317756 121.66164880106254 H 0.0 **** 0.06
21020 H 11.239123345519118 108.07167016896767 121.93235115927237 H 0.0 **** 0.06
21021 C 135.1072931125855 12.681684559479777 109.66313495648734 C 0.0 **** -0.24
21022 H 134.22529812208353 12.164085392065772 110.04042767665709 H 0.0 **** 0.06
21023 H 134.85900334510987 13.72512604727683 109.46602852830912 H 0.0 **** 0.06
21024 H 135.4400230676041 12.206134813356698 108.74182664849533 H 0.0 **** 0.06
21025 H 135.90237923723305 12.632143909181622 110.40656794628967 H 0.0 **** 0.06
21026 C 74.93837016786306 45.3952380179459 31.019612364217117 C 0.0 **** -0.24
21027 H 75.77758568774459 45.94148207860479 30.590196991966152 H 0.0 **** 0.06
21028 H 74.09047059875994 45.436058235908376 30.33546186665174 H 0.0 **** 0.06
21029 H 74.65904721605675 45.846724808913734 31.9720556693419 H 0.0 **** 0.06
21030 H 75.22589078749607 44.356089212609106 31.18009761007559 H 0.0 **** 0.06
21031 C 37.577212816173386 101.55476459464094 17.21791950895576 C 0.0 **** -0.24
21032 H 36.8161894818831 102.24326251832227 17.58432765529136 H 0.0 **** 0.06
21033 H 38.49670914645989 102.10590439360212 17.014822615413664 H 0.0 **** 0.06
21034 H 37.22765838538005 101.08162901470143 16.300234769248277 H 0.0 **** 0.06
21035 H 37.769655760142825 100.79137691779215 17.970728765151648 H 0.0 **** 0.06
21036 C 75.59725758186394 117.20656841076922 121.01528400761069 C 0.0 **** -0.24
21037 H 74.63851685844455 117.3908051156983 121.4995544939299 H 0.0 **** 0.06
21038 H 76.40021152141009 117.60651916540874 121.63505351484389 H 0.0 **** 0.06
21039 H 75.6114945045685 117.69570911891873 120.04059299232941 H 0.0 **** 0.06
21040 H 75.7384545497174 116.1342367595118 120.88499562441501 H 0.0 **** 0.06
21041 C 35.8160003807465 52.57900225631677 127.35998829737747 C 0.0 **** -0.24
21042 H 36.179736822656096 53.56942184128509 127.6347604239489 H 0.0 **** 0.06
21043 H 35.557521146031064 52.02453573760536 128.26233924474562 H 0.0 **** 0.06
21044 H 36.59236230744874 52.04492261347799 126.8134693989744 H 0.0 **** 0.06
21045 H 34.9322437893356 52.67992754753672 126.73015798493475 H 0.0 **** 0.06
21046 C 157.77278769164695 98.66389511101914 37.46775427398737 C 0.0 **** -0.24
21047 H 158.67129077260316 98.09544598800244 37.70630959521577 H 0.0 **** 0.06
21048 H 156.91583228839548 98.21787250907948 37.97291577609937 H 0.0 **** 0.06
21049 H 157.60873512564805 98.6466840952034 36.389724390204975 H 0.0 **** 0.06
21050 H 157.89523087348854 99.69404018455032 37.800161566119655 H 0.0 **** 0.06
21051 C 157.97468054400343 7.780820709466866 18.13154535415879 C 0.0 **** -0.24
21052 H 157.6334341641192 7.3199818017389475 17.204261534289287 H 0.0 **** 0.06
21053 H 158.39043620039502 8.764816020834019 17.916665638353038 H 0.0 **** 0.06
21054 H 158.7406205781447 7.153761804899375 18.588055874563622 H 0.0 **** 0.06
21055 H 157.133135535497 7.8835095067657335 18.816627002432455 H 0.0 **** 0.06
21056 C 140.33031334973427 25.72765868311444 140.26811952880308 C 0.0 **** -0.24
21057 H 139.4873035870249 26.37344393543657 140.021283915989 H 0.0 **** 0.06
21058 H 140.28691351002033 24.825743123847133 139.6570919913646 H 0.0 **** 0.06
21059 H 140.28367162224976 25.455594356787515 141.32205281574855 H 0.0 **** 0.06
21060 H 141.26293219392062 26.255531275894327 140.07012342047435 H 0.0 **** 0.06
21061 C 136.70495923956443 122.2204114666201 130.73672370886476 C 0.0 **** -0.24
21062 H 136.11877736666904 123.13504431877192 130.65203374249728 H 0.0 **** 0.06
21063 H 137.49994589259404 122.36609861213532 131.4685388177254 H 0.0 **** 0.06
21064 H 137.14104001606984 121.97732477264762 129.76845348194945 H 0.0 **** 0.06
21065 H 136.05955822104255 121.4036576558284 131.06021497458494 H 0.0 **** 0.06
21066 C 125.21177833662296 15.446118275762316 82.70630117356905 C 0.0 **** -0.24
21067 H 124.3772110789971 16.101911336899633 82.45691226186767 H 0.0 **** 0.06
21068 H 125.74527385136321 15.850276251591744 83.56650389178645 H 0.0 **** 0.06
21069 H 125.88979449840917 15.382031003168322 81.85554107414237 H 0.0 **** 0.06
21070 H 124.83427646174403 14.453026653694614 82.94631610548657 H 0.0 **** 0.06
21071 C 11.714038959708262 37.917037568966464 91.00414251839459 C 0.0 **** -0.24
21072 H 11.714669626880436 36.93731669579523 90.5261001801453 H 0.0 **** 0.06
21073 H 10.787283508850209 38.04818697875271 91.56349397151524 H 0.0 **** 0.06
21074 H 11.792119338645392 38.692974493795134 90.24270493409438 H 0.0 **** 0.06
21075 H 12.563056377922834 37.98949395226515 91.68441773822173 H 0.0 **** 0.06
21076 C 120.34195901200147 35.20194462101358 114.0902266170666 C 0.0 **** -0.24
21077 H 120.69203372484071 35.77121219660765 114.95154362622452 H 0.0 **** 0.06
21078 H 119.38278491653446 34.739667786849395 114.3268826711618 H 0.0 **** 0.06
21079 H 121.06918512886145 34.42793357518917 113.84574978735111 H 0.0 **** 0.06
21080 H 120.22293003152609 35.87072108896797 113.2377801416767 H 0.0 **** 0.06
21081 C 91.738124918512 110.86108404326683 72.24390110151501 C 0.0 **** -0.24
21082 H 91.55755846916794 111.76825939139576 72.82125500110469 H 0.0 **** 0.06
21083 H 91.58194555203745 109.98895784780632 72.87804361809333 H 0.0 **** 0.06
21084 H 92.76399802738239 110.86384953745221 71.8748406886542 H 0.0 **** 0.06
21085 H 91.0494484410814 110.82549777615009 71.39950771203151 H 0.0 **** 0.06
21086 C 151.1473408861112 68.98263617819924 43.68673987370735 C 0.0 **** -0.24
21087 H 152.23340152230244 69.07147249641001 43.66311244815118 H 0.0 **** 0.06
21088 H 150.69871124080885 69.89570721959468 43.295281608003265 H 0.0 **** 0.06
21089 H 150.8183807958789 68.82736199225047 44.714458247109064 H 0.0 **** 0.06
21090 H 150.8388539266998 68.13498600144526 43.075089793813746 H 0.0 **** 0.06
21091 C 35.111507875249345 51.155623783194216 56.94795214993462 C 0.0 **** -0.24
21092 H 35.29195819129913 50.84407067616358 57.97579315902203 H 0.0 **** 0.06
21093 H 36.062276396725196 51.2475991084404 56.423093494840174 H 0.0 **** 0.06
21094 H 34.600425097570565 52.11928488819841 56.94440559571308 H 0.0 **** 0.06
21095 H 34.48941810977844 50.413399952098445 56.44720273111818 H 0.0 **** 0.06
21096 C 35.18082815897816 68.31162259037912 128.09454964085123 C 0.0 **** -0.24
21097 H 35.46356843136442 68.53183924734944 127.06517098509161 H 0.0 **** 0.06
21098 H 34.330738305770836 67.62851987362927 128.09888691264237 H 0.0 **** 0.06
21099 H 34.90647930359421 69.23606930723567 128.60176537406176 H 0.0 **** 0.06
21100 H 36.02188507845864 67.849432300244 128.61089471434153 H 0.0 **** 0.06
21101 C 98.45308573137694 36.44111810311128 80.80929121016594 C 0.0 **** -0.24
21102 H 98.25318205719628 36.00944567378902 79.82905539035973 H 0.0 **** 0.06
21103 H 97.5260299106466 36.484435244002256 81.38165037245592 H 0.0 **** 0.06
21104 H 98.85285635088403 37.44801463960191 80.6878182425314 H 0.0 **** 0.06
21105 H 99.17792263371018 35.82300640668052 81.3381080228227 H 0.0 **** 0.06
21106 C 92.1560665728706 81.18646935677361 155.02803896905425 C 0.0 **** -0.24
21107 H 91.17747556099829 80.77281233867336 155.2722773114615 H 0.0 **** 0.06
21108 H 92.13801731099676 81.58618071339453 154.0141958315134 H 0.0 **** 0.06
21109 H 92.90880791098641 80.40079068869619 155.09699824210048 H 0.0 **** 0.06
21110 H 92.39863845253274 81.98442760354442 155.72936510961642 H 0.0 **** 0.06
21111 C 27.704167004190538 105.84193093017291 25.162208322732333 C 0.0 **** -0.24
21112 H 27.43239090992023 104.98568307579171 24.544293891236357 H 0.0 **** 0.06
21113 H 28.034182808407394 106.66114428447952 24.523296037005316 H 0.0 **** 0.06
21114 H 28.511328024760928 105.55961984928805 25.83769361337763 H 0.0 **** 0.06
21115 H 26.838640251947282 106.1592880573657 25.742534701999695 H 0.0 **** 0.06
21116 C 73.30198696122812 91.04465314254864 151.03126939588358 C 0.0 **** -0.24
21117 H 74.14478445161225 90.43999008553038 150.69459021763078 H 0.0 **** 0.06
21118 H 72.37187591043018 90.60490504547525 150.66882084356652 H 0.0 **** 0.06
21119 H 73.4028323930503 92.05674543449697 150.64020389348502 H 0.0 **** 0.06
21120 H 73.28975053450272 91.07499130127576 152.1208311083597 H 0.0 **** 0.06
21121 C 122.41880547318829 160.24841299268246 28.154785169056026 C 0.0 **** -0.24
21122 H 123.186186035252 160.2025378704986 28.927678699416333 H 0.0 **** 0.06
21123 H 122.43363531842414 159.3269592463921 27.571943035886193 H 0.0 **** 0.06
21124 H 122.61291629791506 161.09732940512924 27.49926189204666 H 0.0 **** 0.06
21125 H 121.44078905642357 160.3668520083911 28.62131806914107 H 0.0 **** 0.06
21126 C 49.311571350210485 30.24909008521896 128.8163419285853 C 0.0 **** -0.24
21127 H 49.608999870665215 29.5077053282018 128.07494408421024 H 0.0 **** 0.06
21128 H 49.11595364810039 29.75413206385685 129.7681224488813 H 0.0 **** 0.06
21129 H 48.40749304861177 30.75688719750258 128.47837386270692 H 0.0 **** 0.06
21130 H 50.11171485332534 30.977708972416288 128.94270931685185 H 0.0 **** 0.06
21131 C 155.8791625761547 53.26870613489018 97.03949478149516 C 0.0 **** -0.24
21132 H 156.29270472460897 52.34798709900548 96.62686391551216 H 0.0 **** 0.06
21133 H 155.44539892104302 53.06446804667931 98.01886232158535 H 0.0 **** 0.06
21134 H 155.10743506793474 53.651127095116806 96.37227091742498 H 0.0 **** 0.06
21135 H 156.67204605628143 54.009051659369845 97.14055473218087 H 0.0 **** 0.06
21136 C 74.64730326808912 117.12495157263038 139.44807868373186 C 0.0 **** -0.24
21137 H 74.94756492679734 116.07809011941589 139.4025826255617 H 0.0 **** 0.06
21138 H 75.02184940471118 117.56984413757186 140.36984852822565 H 0.0 **** 0.06
21139 H 73.5597158764542 117.19156365427756 139.4264837442846 H 0.0 **** 0.06
21140 H 75.06070672015974 117.6584599736467 138.59230697291827 H 0.0 **** 0.06
21141 C 27.68923077027506 77.0415159455149 93.16952869282767 C 0.0 **** -0.24
21142 H 26.87869054192649 77.66771368429204 93.54441378513445 H 0.0 **** 0.06
21143 H 28.019018255697716 76.36493815565814 93.95756901363319 H 0.0 **** 0.06
21144 H 28.52196391880446 77.67353071562309 92.86083030925887 H 0.0 **** 0.06
21145 H 27.336291381501724 76.46227675603143 92.31683204268172 H 0.0 **** 0.06
21146 C 93.07800092396761 53.43918701515365 123.37564929233253 C 0.0 **** -0.24
21147 H 92.95830481569787 52.45354010942776 123.82519447275723 H 0.0 **** 0.06
21148 H 92.25667272939612 53.622845263588474 122.68213610877919 H 0.0 **** 0.06
21149 H 94.02434657089364 53.48013840809509 122.83790706327261 H 0.0 **** 0.06
21150 H 93.07035548984653 54.198328671357885 124.1574340019231 H 0.0 **** 0.06
21151 C 107.06298469693073 150.379179444264 96.16837342762224 C 0.0 **** -0.24
21152 H 107.02070984713657 151.2792024710597 95.5543463378072 H 0.0 **** 0.06
21153 H 108.10192194017404 150.15563977789657 96.41373911840613 H 0.0 **** 0.06
21154 H 106.63051062981074 149.54392171322172 95.61779595665104 H 0.0 **** 0.06
21155 H 106.49831961383867 150.53921080802655 97.08717328558137 H 0.0 **** 0.06
21156 C 79.32934709898211 18.548097052367524 69.66672548734934 C 0.0 **** -0.24
21157 H 80.16382557027572 17.93196752790749 70.00389605660675 H 0.0 **** 0.06
21158 H 78.53360179554116 18.51917553343111 70.41125071971493 H 0.0 **** 0.06
21159 H 78.95455648946444 18.1653845906811 68.71789199298556 H 0.0 **** 0.06
21160 H 79.66735395001652 19.57586344328425 69.53534641165083 H 0.0 **** 0.06
21161 C 106.63004423354289 85.4591746218251 143.94862522802362 C 0.0 **** -0.24
21162 H 107.65386611466886 85.09473998696659 144.02110248971763 H 0.0 **** 0.06
21163 H 106.25427136420444 85.68753648115262 144.94607621560687 H 0.0 **** 0.06
21164 H 106.003187424352 84.69445332410935 143.4898031073293 H 0.0 **** 0.06
21165 H 106.60862551558427 86.36150331188291 143.3367485589978 H 0.0 **** 0.06
21166 C 48.16638293852583 0.3762624781163382 70.88654754898647 C 0.0 **** -0.24
21167 H 48.69461220190186 0.4039482707672484 71.83947576818446 H 0.0 **** 0.06
21168 H 47.15973248003144 -0.014628666080223951 71.04090065052763 H 0.0 **** 0.06
21169 H 48.70442757562304 -0.2689469007571539 70.19185647355567 H 0.0 **** 0.06
21170 H 48.106046248116144 1.3835298474175985 70.4743755135553 H 0.0 **** 0.06
21171 C 9.148520901010102 129.9665645305056 122.95055938783486 C 0.0 **** -0.24
21172 H 8.19716851793433 130.40485719509803 122.64980695666915 H 0.0 **** 0.06
21173 H 9.417709376478996 130.32690534837832 123.94316852532225 H 0.0 **** 0.06
21174 H 9.921760149348756 130.25322910990724 122.23746096950839 H 0.0 **** 0.06
21175 H 9.057797599140798 128.87952235222076 122.97044674484187 H 0.0 **** 0.06
21176 C 108.87967532857812 82.17527598892649 86.05740252338019 C 0.0 **** -0.24
21177 H 108.39957444959737 81.71599793032408 86.92145846166922 H 0.0 **** 0.06
21178 H 109.38263339896446 81.40795356016268 85.46977654195271 H 0.0 **** 0.06
21179 H 109.60973407582861 82.91001882778623 86.39791546399766 H 0.0 **** 0.06
21180 H 108.12723744387324 82.66963722342258 85.44370061875445 H 0.0 **** 0.06
21181 C 139.64850316368955 92.69791179465483 108.95400271663348 C 0.0 **** -0.24
21182 H 139.75501889273914 91.7045337830362 108.51662482289939 H 0.0 **** 0.06
21183 H 139.95145260772466 92.66802625634935 110.00067761736162 H 0.0 **** 0.06
21184 H 138.60800924717833 93.01456446350005 108.88526161955548 H 0.0 **** 0.06
21185 H 140.28006115758748 93.4022351683235 108.41274867716791 H 0.0 **** 0.06
21186 C 148.20013080735438 118.6807625405354 109.39584076820441 C 0.0 **** -0.24
21187 H 147.7597603673389 118.068773849651 110.18243122447231 H 0.0 **** 0.06
21188 H 147.45379923998323 119.3816011781324 109.02075107904483 H 0.0 **** 0.06
21189 H 148.5370556694608 118.03981841432395 108.58189907382572 H 0.0 **** 0.06
21190 H 149.04830676626312 119.23471046608145 109.79828467489392 H 0.0 **** 0.06
21191 C 91.12390084021305 54.38506523702057 65.35922053340579 C 0.0 **** -0.24
21192 H 92.13410852551777 54.66830703973659 65.06501763493333 H 0.0 **** 0.06
21193 H 91.16912143107844 53.54108602473161 66.04724889911978 H 0.0 **** 0.06
21194 H 90.55388794007202 54.10254977681035 64.47391427214114 H 0.0 **** 0.06
21195 H 90.63907543497294 55.22907556135692 65.84966293567831 H 0.0 **** 0.06
21196 C 43.04783736943857 112.86570669686242 115.5566180448761 C 0.0 **** -0.24
21197 H 43.749787514285345 112.49191410899792 114.81145635785299 H 0.0 **** 0.06
21198 H 43.59931914332272 113.32178416961264 116.37905470570232 H 0.0 **** 0.06
21199 H 42.44526566411956 112.04002531383261 115.93588373955538 H 0.0 **** 0.06
21200 H 42.39579433417103 113.6107018867717 115.09905499290522 H 0.0 **** 0.06
21201 C 70.70342053819527 121.96359778091846 1.2285329985893156 C 0.0 **** -0.24
21202 H 70.56113212623461 122.85286653001114 1.8430344000175864 H 0.0 **** 0.06
21203 H 71.76881399857619 121.80507271603497 1.0605554894540603 H 0.0 **** 0.06
21204 H 70.2005856722865 122.10117502673603 0.27027702391737307 H 0.0 **** 0.06
21205 H 70.28216784113042 121.09793867699722 1.739290597229484 H 0.0 **** 0.06
21206 C 1.0568095506821749 95.3085068335347 43.75898309375117 C 0.0 **** -0.24
21207 H 0.0066384656320011 95.11522122596789 43.542614912871045 H 0.0 **** 0.06
21208 H 1.5842409743351809 94.36057230734983 43.87686931236232 H 0.0 **** 0.06
21209 H 1.1376309602596493 95.88587714451884 44.67949395913968 H 0.0 **** 0.06
21210 H 1.5001001883221576 95.87036439481892 42.936569960984286 H 0.0 **** 0.06
21211 C 94.47548302652659 118.79699728791098 53.728023160207826 C 0.0 **** -0.24
21212 H 93.94922303351241 118.83353651956801 54.682381682916954 H 0.0 **** 0.06
21213 H 93.80045493797601 119.10442133674965 52.92970970616935 H 0.0 **** 0.06
21214 H 94.82012707738602 117.77929783098719 53.54247485337176 H 0.0 **** 0.06
21215 H 95.33220060124873 119.47007851978103 53.76061928387129 H 0.0 **** 0.06
21216 C 158.30582040454482 28.53304308240675 97.62303894491606 C 0.0 **** -0.24
21217 H 157.3253300824412 28.228733791023075 97.25707797291341 H 0.0 **** 0.06
21218 H 158.55754850418066 27.954802273748612 98.51218032455722 H 0.0 **** 0.06
21219 H 158.2859710396269 29.59464140384918 97.87271255468045 H 0.0 **** 0.06
21220 H 159.0523313086833 28.355921279204892 96.84924881083265 H 0.0 **** 0.06
21221 C 88.3999271929509 42.222374902789284 158.64157773088561 C 0.0 **** -0.24
21222 H 88.77683358276913 42.95941083788756 159.3499903438598 H 0.0 **** 0.06
21223 H 88.83329671510394 41.2475576648805 158.86704189719285 H 0.0 **** 0.06
21224 H 88.67445578850507 42.516943858115155 157.62939296859727 H 0.0 **** 0.06
21225 H 87.31363924006769 42.16463690512978 158.72126280680058 H 0.0 **** 0.06
21226 C 93.23682767311838 111.10699641581073 131.73980419517773 C 0.0 **** -0.24
21227 H 93.14502079071858 111.20275027979125 132.82151096563385 H 0.0 **** 0.06
21228 H 93.94162792117001 110.30849539578429 131.50426727819533 H 0.0 **** 0.06
21229 H 93.5977084294764 112.04568622514199 131.32155149245676 H 0.0 **** 0.06
21230 H 92.26276525704245 110.8682386580148 131.31208697786607 H 0.0 **** 0.06
21231 C 116.71705546560196 159.38436713740705 64.47836081409355 C 0.0 **** -0.24
21232 H 117.45836725085607 158.82137411279263 65.04447874680523 H 0.0 **** 0.06
21233 H 115.78983304836356 159.44101450613041 65.04860244814893 H 0.0 **** 0.06
21234 H 116.52917553520979 158.88509949498427 63.52807728066023 H 0.0 **** 0.06
21235 H 117.09075838124028 160.39126695859687 64.29170405939908 H 0.0 **** 0.06
21236 C 81.63976806744607 98.89193473056619 40.908184332028384 C 0.0 **** -0.24
21237 H 81.43098525581159 99.9616256774431 40.9360390769387 H 0.0 **** 0.06
21238 H 81.22361128944318 98.46454720697315 39.995529787685314 H 0.0 **** 0.06
21239 H 81.18504061642648 98.41027091350995 41.77393243304334 H 0.0 **** 0.06
21240 H 82.71745944513479 98.73038155570555 40.92672387901462 H 0.0 **** 0.06
21241 C 42.5715250632727 136.01949350050543 56.467739436564116 C 0.0 **** -0.24
21242 H 42.18951995053894 136.45298829818287 55.54307775110654 H 0.0 **** 0.06
21243 H 42.13080804596042 136.53691286379853 57.32021089411519 H 0.0 **** 0.06
21244 H 43.655243162698014 136.12561159158608 56.49805186050604 H 0.0 **** 0.06
21245 H 42.30847362912175 134.96205791578905 56.50883459231065 H 0.0 **** 0.06
21246 C 22.773296229680255 154.8889860003053 103.42837302574824 C 0.0 **** -0.24
21247 H 22.68434309556494 154.7214414841994 104.50216120700395 H 0.0 **** 0.06
21248 H 23.12633177642911 153.97638619417685 102.94642655354423 H 0.0 **** 0.06
21249 H 23.482667148098898 155.69567330304588 103.24444276195493 H 0.0 **** 0.06
21250 H 21.79916134503992 155.16200634919926 103.02162126314232 H 0.0 **** 0.06
21251 C 10.263366988710537 108.8680265332093 129.57265806453987 C 0.0 **** -0.24
21252 H 10.39126154038744 107.896333962076 130.0509544404831 H 0.0 **** 0.06
21253 H 11.170718042136613 109.45891504607792 129.70349281105234 H 0.0 **** 0.06
21254 H 9.420850931423352 109.38899440131843 130.0270015650329 H 0.0 **** 0.06
21255 H 10.072573320812062 108.72641244268968 128.50879713085013 H 0.0 **** 0.06
21256 C 74.72686623189196 98.7213595458874 6.585600455222732 C 0.0 **** -0.24
21257 H 74.17410607532486 99.22653693429282 5.793669987683046 H 0.0 **** 0.06
21258 H 74.87186953714516 97.67477495692489 6.316891300867752 H 0.0 **** 0.06
21259 H 74.16467785431738 98.78362504990017 7.5173241745822565 H 0.0 **** 0.06
21260 H 75.69639217444785 99.20216209143464 6.714259706048267 H 0.0 **** 0.06
21261 C 54.17318933071495 67.27986419770608 113.91047964023161 C 0.0 **** -0.24
21262 H 54.72355015314797 67.29900856676626 114.85202006117012 H 0.0 **** 0.06
21263 H 54.55494592220221 68.06095476129504 113.25213905439216 H 0.0 **** 0.06
21264 H 53.11536590061266 67.45244738589008 114.10530892061433 H 0.0 **** 0.06
21265 H 54.30220512695446 66.30852991531751 113.4348679930253 H 0.0 **** 0.06
21266 C 153.08130957256748 71.63953556383224 109.79238059011357 C 0.0 **** -0.24
21267 H 153.7008401710899 72.33662362881377 109.22620924733116 H 0.0 **** 0.06
21268 H 152.05815935927163 72.01318214835943 109.83083473839076 H 0.0 **** 0.06
21269 H 153.47234505571447 71.5455873730264 110.80482012116306 H 0.0 **** 0.06
21270 H 153.09437600943832 70.66519194495919 109.30505051363639 H 0.0 **** 0.06
21271 C 90.33471332897037 114.94628898772271 145.50130014684515 C 0.0 **** -0.24
21272 H 89.32874609888471 115.35622699716808 145.41229109407442 H 0.0 **** 0.06
21273 H 90.29207915071366 113.8599018365631 145.42151198879273 H 0.0 **** 0.06
21274 H 90.75544436924483 115.22354702160155 146.46834681551795 H 0.0 **** 0.06
21275 H 90.96164638927198 115.34577447070379 144.7040679685956 H 0.0 **** 0.06
21276 C 157.2686341902466 115.78528708216697 6.904454461412378 C 0.0 **** -0.24
21277 H 156.64415849272484 115.2338848225628 7.607179513767768 H 0.0 **** 0.06
21278 H 157.52028171883586 116.75826070777316 7.329381249836985 H 0.0 **** 0.06
21279 H 156.7266777345569 115.92694452653473 5.969914897939013 H 0.0 **** 0.06
21280 H 158.18355440183157 115.22493054450314 6.713736362085456 H 0.0 **** 0.06
21281 C 16.534494156476427 38.81010634557519 128.3298955541711 C 0.0 **** -0.24
21282 H 16.793166378155888 38.92812518689732 127.27822305139861 H 0.0 **** 0.06
21283 H 15.742396568070973 38.06731966850572 128.42722095903514 H 0.0 **** 0.06
21284 H 16.188359735032975 39.76419130119595 128.7275759782838 H 0.0 **** 0.06
21285 H 17.412098382850246 38.48014446329921 128.88569032750934 H 0.0 **** 0.06
21286 C 107.23436198308659 127.08160470530538 65.53089808379445 C 0.0 **** -0.24
21287 H 108.02697852413252 126.3395253266188 65.61864787496546 H 0.0 **** 0.06
21288 H 106.67854254646795 126.91282763001709 64.60844271036638 H 0.0 **** 0.06
21289 H 107.67139518512067 128.07996808514025 65.51485456510761 H 0.0 **** 0.06
21290 H 106.55939530504082 126.99506708256104 66.38252422614698 H 0.0 **** 0.06
21291 C 40.913136449362355 45.67468935819397 15.312681892138329 C 0.0 **** -0.24
21292 H 40.08836570961358 45.13414725151594 14.848448859145975 H 0.0 **** 0.06
21293 H 41.71047814292399 44.97516257417695 15.564289457568691 H 0.0 **** 0.06
21294 H 40.56006801356 46.16548519954132 16.22005943257693 H 0.0 **** 0.06
21295 H 41.29268557582003 46.42458817343085 14.618771899541514 H 0.0 **** 0.06
21296 C 70.87345215926364 151.9665916206359 156.48818074780937 C 0.0 **** -0.24
21297 H 70.50387559830595 152.9282530208964 156.129782331436 H 0.0 **** 0.06
21298 H 70.39924727113785 151.16271141375165 155.92372061506757 H 0.0 **** 0.06
21299 H 70.6355048372918 151.85805341332056 157.54582404894194 H 0.0 **** 0.06
21300 H 71.95370205697657 151.91914344666483 156.35046478346243 H 0.0 **** 0.06
21301 C 118.92183356767683 33.036285432568434 57.18157135329125 C 0.0 **** -0.24
21302 H 118.53101745828147 33.34163445364146 56.21076827857189 H 0.0 **** 0.06
21303 H 119.90214215717523 32.57693764814991 57.050851928139764 H 0.0 **** 0.06
21304 H 118.24121379765762 32.31687690677575 57.63713689689098 H 0.0 **** 0.06
21305 H 119.0129608575929 33.909692721706705 57.82752830956264 H 0.0 **** 0.06
21306 C 52.43016111022307 13.075082734903475 137.4370104073354 C 0.0 **** -0.24
21307 H 51.51374012086822 12.547900583917965 137.7016769837022 H 0.0 **** 0.06
21308 H 52.86510345791376 13.518082853699468 138.3337656414206 H 0.0 **** 0.06
21309 H 52.201619504473626 13.86086042728607 136.7170166521556 H 0.0 **** 0.06
21310 H 53.13814641501618 12.373182754695478 136.99691147919765 H 0.0 **** 0.06
21311 C 0.1515651927462045 117.009482005069 4.8724472020934115 C 0.0 **** -0.24
21312 H 0.31559922349892844 117.83988509412234 4.185628153718227 H 0.0 **** 0.06
21313 H 0.9612615962453006 116.28667260388852 4.766620954863981 H 0.0 **** 0.06
21314 H -0.7979089079123405 116.52817530238349 4.639482342628014 H 0.0 **** 0.06
21315 H 0.1292092791304178 117.3838188802772 5.895607968685397 H 0.0 **** 0.06
21316 C 122.76346781510824 115.28483086916745 16.078126754416473 C 0.0 **** -0.24
21317 H 123.16173858353892 116.14119043019684 16.62293366864253 H 0.0 **** 0.06
21318 H 123.07218718689478 115.34391620429378 15.033877663752492 H 0.0 **** 0.06
21319 H 121.67563259053702 115.2906668655632 16.136180881145833 H 0.0 **** 0.06
21320 H 123.14599501518012 114.36398442915532 16.51810700847136 H 0.0 **** 0.06
21321 C 117.04798050919422 12.559696195674746 50.432143858166455 C 0.0 **** -0.24
21322 H 116.13617329513912 12.86091155683016 49.916405778604656 H 0.0 **** 0.06
21323 H 117.04814120256 11.477424663146252 50.56602886183782 H 0.0 **** 0.06
21324 H 117.09226179109217 13.047257859387173 51.40538206686324 H 0.0 **** 0.06
21325 H 117.91398384319041 12.852224290385237 49.838266430642676 H 0.0 **** 0.06
21326 C 47.14970237292901 129.7808453895224 115.21877893824944 C 0.0 **** -0.24
21327 H 47.74976733092363 129.616510383503 114.32352817916399 H 0.0 **** 0.06
21328 H 47.69094127365085 130.43462370820856 115.90360245996408 H 0.0 **** 0.06
21329 H 46.954779438226424 128.82533939566525 115.70599060577649 H 0.0 **** 0.06
21330 H 46.20409174240159 130.24748995885506 114.94225543780601 H 0.0 **** 0.06
21331 C 45.4888708154413 62.47886049856385 28.299959858985147 C 0.0 **** -0.24
21332 H 45.87544764190969 61.915444681175245 29.150020369478398 H 0.0 **** 0.06
21333 H 46.11910945425646 62.29970184599148 27.427960238036235 H 0.0 **** 0.06
21334 H 45.49162344982871 63.542360389624264 28.538390675340338 H 0.0 **** 0.06
21335 H 44.47048821897174 62.156720599349285 28.084526333498815 H 0.0 **** 0.06
21336 C 158.8082801085674 109.7596515215408 116.21324514568946 C 0.0 **** -0.24
21337 H 158.04407867083665 109.89964032752079 115.44983103698934 H 0.0 **** 0.06
21338 H 159.10339741116928 108.71060529089874 116.24328930385096 H 0.0 **** 0.06
21339 H 158.41062337829356 110.05393207139713 117.18432594949269 H 0.0 **** 0.06
21340 H 159.67670695234614 110.37481315106515 115.97543666423681 H 0.0 **** 0.06
21341 C 15.017509873861286 32.192698555188315 3.6914567265502 C 0.0 **** -0.24
21342 H 14.31493261797874 32.90212826893139 4.130401576410179 H 0.0 **** 0.06
21343 H 14.576927100330067 31.19560189930266 3.6993270941756577 H 0.0 **** 0.06
21344 H 15.938796132734012 32.18821694945757 4.272660094199921 H 0.0 **** 0.06
21345 H 15.236309547835845 32.48610171402271 2.665163338260669 H 0.0 **** 0.06
21346 C 71.24374701826366 149.15499786640865 101.36586178808 C 0.0 **** -0.24
21347 H 70.96798001000803 148.474688283767 100.560786479791 H 0.0 **** 0.06
21348 H 72.2892207310698 148.9983587714631 101.63161687820636 H 0.0 **** 0.06
21349 H 70.61489440206549 148.96188615054047 102.23515869819872 H 0.0 **** 0.06
21350 H 71.10233290417216 150.18423279911104 101.03581427312676 H 0.0 **** 0.06
21351 C 64.27276365184696 82.16873019934046 10.419580822508578 C 0.0 **** -0.24
21352 H 63.50310272429704 82.58133624749719 9.76730851672528 H 0.0 **** 0.06
21353 H 64.29880249347337 81.08378915655183 10.310046267556118 H 0.0 **** 0.06
21354 H 64.04653035778824 82.42431095830256 11.4546976392121 H 0.0 **** 0.06
21355 H 65.24164280216607 82.58506775950784 10.145336298442828 H 0.0 **** 0.06
21356 C 75.1325886799736 130.3942686342663 17.207000555460645 C 0.0 **** -0.24
21357 H 74.46269158118773 131.2415737480749 17.35295182702 H 0.0 **** 0.06
21358 H 74.95042320790452 129.6499340133555 17.98194736557469 H 0.0 **** 0.06
21359 H 76.16714495588303 130.73383336673302 17.26534426029177 H 0.0 **** 0.06
21360 H 74.95009497491912 129.95173340890167 16.227758768956093 H 0.0 **** 0.06
21361 C 9.786908876035 136.55391074140758 7.005063547359839 C 0.0 **** -0.24
21362 H 9.913131907534392 137.31109476739846 6.230797460993131 H 0.0 **** 0.06
21363 H 8.997851560531785 136.86479119813023 7.690701781622522 H 0.0 **** 0.06
21364 H 10.720394945158773 136.43671949692464 7.554050595504918 H 0.0 **** 0.06
21365 H 9.514524385852582 135.604807614712 6.543011805916024 H 0.0 **** 0.06
21366 C 66.1081524481213 159.52536638488186 30.871268920336853 C 0.0 **** -0.24
21367 H 65.3679377621107 159.83926809797356 31.6069521241378 H 0.0 **** 0.06
21368 H 65.6707556718631 158.77285336053836 30.214865024130994 H 0.0 **** 0.06
21369 H 66.97245858795691 159.1019071141069 31.383532542218433 H 0.0 **** 0.06
21370 H 66.42114805310162 160.38597303238373 30.281053052097278 H 0.0 **** 0.06
21371 C 17.252202816639013 99.07561543823257 126.93596767474992 C 0.0 **** -0.24
21372 H 16.348384518198515 99.67981296908928 127.01365087265316 H 0.0 **** 0.06
21373 H 17.158126512786666 98.19713853221228 127.57384996118384 H 0.0 **** 0.06
21374 H 18.112453468276918 99.66537907273033 127.2538946359659 H 0.0 **** 0.06
21375 H 17.390429295466078 98.760336922785 125.90120306932403 H 0.0 **** 0.06
21376 C 91.6309461112786 128.09116246670672 25.422677848178296 C 0.0 **** -0.24
21377 H 92.71773121335474 128.17006164319955 25.386692664483633 H 0.0 **** 0.06
21378 H 91.21488379946817 129.00716595350892 25.84247616854003 H 0.0 **** 0.06
21379 H 91.34968459623843 127.24393607119995 26.046896723231242 H 0.0 **** 0.06
21380 H 91.24437766431404 127.94424928648144 24.414423319840296 H 0.0 **** 0.06
21381 C 70.59090446207172 86.37803166583508 26.579634670919177 C 0.0 **** -0.24
21382 H 70.15085242503955 86.97990098716099 27.374355604137406 H 0.0 **** 0.06
21383 H 71.59926941047691 86.73635541051314 26.36955345379937 H 0.0 **** 0.06
21384 H 69.98109823927611 86.46005990580299 25.681036577726445 H 0.0 **** 0.06
21385 H 70.63442311085636 85.33492244313132 26.89661133146069 H 0.0 **** 0.06
21386 C 39.63315588651304 156.64094512925146 10.303421858976712 C 0.0 **** -0.24
21387 H 40.24216087945338 157.30914822175666 10.911147421807158 H 0.0 **** 0.06
21388 H 39.6656296583038 156.96484619410558 9.263020773215452 H 0.0 **** 0.06
21389 H 38.603013448708595 156.6653337474455 10.659234475049026 H 0.0 **** 0.06
21390 H 40.02064748355636 155.62503535970498 10.38081993135711 H 0.0 **** 0.06
21391 C 56.46169923715564 135.5470510520116 48.20741587480461 C 0.0 **** -0.24
21392 H 56.649273193294846 134.93738762303448 49.091308612296274 H 0.0 **** 0.06
21393 H 56.9178499932341 135.07470789376742 47.33741858530772 H 0.0 **** 0.06
21394 H 56.894367272206395 136.53763789619734 48.351959879678304 H 0.0 **** 0.06
21395 H 55.38772230113641 135.63823749315011 48.050739855477104 H 0.0 **** 0.06
21396 C 80.6693348606986 87.28223114453351 87.97586288243761 C 0.0 **** -0.24
21397 H 80.61205146409539 86.71388812241929 88.90427102633737 H 0.0 **** 0.06
21398 H 80.30874748327513 86.66690471827238 87.15106714195673 H 0.0 **** 0.06
21399 H 81.70298559332177 87.57224031521562 87.78926792730445 H 0.0 **** 0.06
21400 H 80.05095556889589 88.17692650668133 88.05926053473561 H 0.0 **** 0.06
21401 C 148.1373654261223 79.45370216550941 116.67591443477124 C 0.0 **** -0.24
21402 H 147.15717615800475 79.40485426936925 117.14980864920255 H 0.0 **** 0.06
21403 H 148.85770506422284 78.89311525452831 117.27299652607451 H 0.0 **** 0.06
21404 H 148.4549242393136 80.49318887472191 116.60348797022755 H 0.0 **** 0.06
21405 H 148.07834295968 79.02114543760004 115.67732749748302 H 0.0 **** 0.06
21406 C 1.0458460948957224 62.56534040207359 132.6473384852893 C 0.0 **** -0.24
21407 H 0.007639705759515891 62.233645254756766 132.6192903806273 H 0.0 **** 0.06
21408 H 1.7009036422485622 61.69903271542779 132.73925396647007 H 0.0 **** 0.06
21409 H 1.193428634719794 63.225341565131885 133.50257046305035 H 0.0 **** 0.06
21410 H 1.2792841352606672 63.102859204779264 131.72872646230243 H 0.0 **** 0.06
21411 C 91.38043014534048 159.9469536683086 80.3547158221266 C 0.0 **** -0.24
21412 H 92.34002416485896 160.32091693072215 80.71127948133022 H 0.0 **** 0.06
21413 H 90.57912060653484 160.36189371909757 80.96727004438725 H 0.0 **** 0.06
21414 H 91.36610611871811 158.85835805183808 80.42599926418416 H 0.0 **** 0.06
21415 H 91.2371553778055 160.2448120714928 79.31635579375052 H 0.0 **** 0.06
21416 C 82.95532446246396 155.84681972313024 9.007702963441893 C 0.0 **** -0.24
21417 H 82.41069970792407 155.14847661169637 8.372242003512568 H 0.0 **** 0.06
21418 H 82.24866196832328 156.50924796219505 9.507885741363907 H 0.0 **** 0.06
21419 H 83.63732900508023 156.4382684423299 8.396225985331036 H 0.0 **** 0.06
21420 H 83.52339094234661 155.29123554128367 9.753738178686106 H 0.0 **** 0.06
21421 C 37.16647274005075 162.79773660125534 64.38975018047813 C 0.0 **** -0.24
21422 H 37.10086660758651 162.9093727448907 65.47212491630258 H 0.0 **** 0.06
21423 H 36.88353476811399 161.78239423172283 64.11208341672895 H 0.0 **** 0.06
21424 H 38.188983330199875 162.9914423472763 64.06660468088744 H 0.0 **** 0.06
21425 H 36.49244286070888 163.50766339959716 63.90959859872068 H 0.0 **** 0.06
21426 C 85.26708084829835 25.302435113712534 154.24874254942233 C 0.0 **** -0.24
21427 H 85.90914018869739 25.894641045557876 154.90024602029257 H 0.0 **** 0.06
21428 H 85.81479766853204 25.036905002422998 153.34360059843777 H 0.0 **** 0.06
21429 H 84.38440696845623 25.884190263926513 153.98206739117933 H 0.0 **** 0.06
21430 H 84.960967705418 24.394650005198372 154.76827867347026 H 0.0 **** 0.06
21431 C 39.4858378502571 136.00968323673723 11.553735126647155 C 0.0 **** -0.24
21432 H 40.571460865980725 135.9421727606832 11.47006362231005 H 0.0 **** 0.06
21433 H 39.22581639893997 136.555295898038 12.460735413369491 H 0.0 **** 0.06
21434 H 39.06281050923826 135.00607217025984 11.599150502447117 H 0.0 **** 0.06
21435 H 39.086571996031864 136.53403527707374 10.686301249024154 H 0.0 **** 0.06
21436 C 118.01381621047 150.09910740036838 63.22301491012166 C 0.0 **** -0.24
21437 H 116.93568446281654 150.1351273858779 63.37997464151566 H 0.0 **** 0.06
21438 H 118.3620798010171 149.07075306150108 63.326483376343745 H 0.0 **** 0.06
21439 H 118.5096518900205 150.72775090980085 63.96167256380254 H 0.0 **** 0.06
21440 H 118.24650479306536 150.4616706086391 62.22171035974522 H 0.0 **** 0.06
21441 C 31.327622857291203 155.77023048345933 160.91424065263757 C 0.0 **** -0.24
21442 H 31.67525005067114 156.79727181982054 160.801727141246 H 0.0 **** 0.06
21443 H 31.436365977032153 155.46128499001722 161.95422454392255 H 0.0 **** 0.06
21444 H 31.92087006632414 155.1142786942016 160.27687900851836 H 0.0 **** 0.06
21445 H 30.279587409187457 155.70729844045923 160.62319584249602 H 0.0 **** 0.06
21446 C 128.35127134146526 70.7558235763924 63.69586333898718 C 0.0 **** -0.24
21447 H 127.51224402147656 70.49773894527408 64.34313482657114 H 0.0 **** 0.06
21448 H 128.03257909223586 70.70966008258145 62.65431350787307 H 0.0 **** 0.06
21449 H 129.16614926599303 70.05048929253351 63.85887368165709 H 0.0 **** 0.06
21450 H 128.69141329115348 71.76436208106907 63.927920125446946 H 0.0 **** 0.06
21451 C 78.95719748504719 115.95821870368826 30.661967572127168 C 0.0 **** -0.24
21452 H 78.45768563255207 116.56452723424184 31.417001812172224 H 0.0 **** 0.06
21453 H 78.27122349188522 115.76960022025222 29.835461892215392 H 0.0 **** 0.06
21454 H 79.26309892836652 115.00978249180935 31.102964056542845 H 0.0 **** 0.06
21455 H 79.83491779518998 116.48778554563015 30.292809282096506 H 0.0 **** 0.06
21456 C 57.85085236605315 44.31153138787988 34.439298091990565 C 0.0 **** -0.24
21457 H 57.68922954270869 43.443541936923566 33.80053740516786 H 0.0 **** 0.06
21458 H 58.88564695859486 44.32225261660221 34.781943782184555 H 0.0 **** 0.06
21459 H 57.18273410060527 44.257702952849 35.29905291145887 H 0.0 **** 0.06
21460 H 57.64424996391253 45.22006321269333 33.87550720661201 H 0.0 **** 0.06
21461 C 14.544793359171386 144.14589925861856 88.51998769591583 C 0.0 **** -0.24
21462 H 14.782974426704442 143.16597996641372 88.1068075859193 H 0.0 **** 0.06
21463 H 14.87780513543332 144.92166942763203 87.83015751962358 H 0.0 **** 0.06
21464 H 15.050903070263026 144.26980031334216 89.47769034429412 H 0.0 **** 0.06
21465 H 13.4674908042847 144.2261473270862 88.66529533382622 H 0.0 **** 0.06
21466 C 13.752874382195081 113.69887851153106 143.32876656246864 C 0.0 **** -0.24
21467 H 13.808622818414932 113.7249886847352 144.4166935842269 H 0.0 **** 0.06
21468 H 14.720868732723687 113.9753527597228 142.9091824522095 H 0.0 **** 0.06
21469 H 12.993921920579993 114.40425944531705 142.98793844678266 H 0.0 **** 0.06
21470 H 13.488180742264952 112.69391153803747 143.0012768832629 H 0.0 **** 0.06
21471 C 18.358267610296743 9.03731213643411 144.25557901617276 C 0.0 **** -0.24
21472 H 17.63477037428096 8.233765495770513 144.3913964891284 H 0.0 **** 0.06
21473 H 17.835351014309452 9.955236843624732 143.98649477009394 H 0.0 **** 0.06
21474 H 19.054684212422814 8.76905118930253 143.4608458217749 H 0.0 **** 0.06
21475 H 18.908625632171002 9.191538202170818 145.18444621104567 H 0.0 **** 0.06
21476 C 140.21225023157956 13.687103599393936 12.611241564972715 C 0.0 **** -0.24
21477 H 140.1880886151348 13.878834694266516 11.538608704704018 H 0.0 **** 0.06
21478 H 140.89334064328023 12.86145702249928 12.81692197332319 H 0.0 **** 0.06
21479 H 139.2107034074595 13.426735011094479 12.955739834102303 H 0.0 **** 0.06
21480 H 140.554740905683 14.581102061838635 13.133068897889075 H 0.0 **** 0.06
21481 C 27.969027281711732 151.23082369925868 29.207817919007333 C 0.0 **** -0.24
21482 H 26.992543916981845 150.97481824005422 29.620045193652032 H 0.0 **** 0.06
21483 H 28.630303870333364 151.55014315812446 30.012835427124287 H 0.0 **** 0.06
21484 H 27.857438228635374 152.03893997237378 28.48526839643865 H 0.0 **** 0.06
21485 H 28.393944137881533 150.35685071875474 28.713188988465753 H 0.0 **** 0.06
21486 C 13.518667859506571 42.13185697444953 67.67857213088679 C 0.0 **** -0.24
21487 H 12.574446011767527 41.95007506054384 67.16487834528552 H 0.0 **** 0.06
21488 H 13.951675596395312 43.0663299107797 67.32349545167862 H 0.0 **** 0.06
21489 H 14.20735933471775 41.310823383912066 67.47309262609134 H 0.0 **** 0.06
21490 H 13.341748208133652 42.19662572426523 68.75186439410615 H 0.0 **** 0.06
21491 C 49.6001471050743 152.29047564256683 143.42471763181678 C 0.0 **** -0.24
21492 H 50.23628045432153 151.4053974506288 143.4510203067781 H 0.0 **** 0.06
21493 H 49.70018091386423 152.83818264756388 144.36255832880198 H 0.0 **** 0.06
21494 H 48.562448756424104 151.98825783317687 143.29006127665045 H 0.0 **** 0.06
21495 H 49.902889487374026 152.93059089895957 142.59573670337414 H 0.0 **** 0.06
21496 C 46.71890400618821 27.995361920012677 87.62840635901135 C 0.0 **** -0.24
21497 H 46.23248381677489 28.174478736946412 88.58746080601475 H 0.0 **** 0.06
21498 H 46.17667723398807 27.219114888639382 87.08670294630751 H 0.0 **** 0.06
21499 H 47.74604652015937 27.67124776459319 87.79690899134272 H 0.0 **** 0.06
21500 H 46.717601231847354 28.9149631918769 87.04374437013794 H 0.0 **** 0.06
21501 C 82.05369575560587 8.020283887179914 149.49404910645114 C 0.0 **** -0.24
21502 H 81.12501002072399 7.854275827434961 150.03816023902374 H 0.0 **** 0.06
21503 H 82.32243527049894 9.075157853342084 149.54614356136852 H 0.0 **** 0.06
21504 H 81.92083321684117 7.731101616772428 148.45093115791315 H 0.0 **** 0.06
21505 H 82.84715399129236 7.420413972365232 149.93882988807968 H 0.0 **** 0.06
21506 C 36.97776289353018 112.85780773729857 33.432530391353964 C 0.0 **** -0.24
21507 H 37.31186316219177 112.72926989307692 34.46251870037332 H 0.0 **** 0.06
21508 H 35.97196246791232 113.27650987057504 33.42637819065598 H 0.0 **** 0.06
21509 H 36.97282840572136 111.89039659201714 32.929942891692804 H 0.0 **** 0.06
21510 H 37.657055439830756 113.53406884753412 32.9122636869096 H 0.0 **** 0.06
21511 C 62.66090483851113 28.663022171639682 49.518450593045145 C 0.0 **** -0.24
21512 H 61.645866644917334 28.605443417599872 49.909684494530126 H 0.0 **** 0.06
21513 H 63.049521122027926 29.671413855702696 49.665435263042966 H 0.0 **** 0.06
21514 H 62.65372895440761 28.428132135438943 48.45449523353004 H 0.0 **** 0.06
21515 H 63.294357735604976 27.949242255394893 50.04480931583028 H 0.0 **** 0.06
21516 C 10.450579250265207 53.73731878312998 108.54556259314057 C 0.0 **** -0.24
21517 H 9.369698411336458 53.59243110370991 108.54143163257203 H 0.0 **** 0.06
21518 H 10.805770274249824 53.84398388354779 107.51996433475495 H 0.0 **** 0.06
21519 H 10.930810210388245 52.87610807862532 109.00945825518826 H 0.0 **** 0.06
21520 H 10.693696070431258 54.637259243652295 109.11088838412655 H 0.0 **** 0.06
21521 C 103.35542224068811 23.6946597385392 80.56227725614362 C 0.0 **** -0.24
21522 H 103.46507933010648 24.668232835411004 80.08366402087236 H 0.0 **** 0.06
21523 H 103.3733817175216 23.818971882582048 81.64521068742147 H 0.0 **** 0.06
21524 H 104.17648826215813 23.04602950824136 80.25695076135793 H 0.0 **** 0.06
21525 H 102.4078580965502 23.247316922861273 80.2629790136854 H 0.0 **** 0.06
21526 C 3.573742918769028 25.187772133601072 145.14638567559376 C 0.0 **** -0.24
21527 H 3.5592277787987427 24.615857563671995 144.2188055554745 H 0.0 **** 0.06
21528 H 3.3592144716667462 24.524726902843213 145.98493110943656 H 0.0 **** 0.06
21529 H 2.8183052128312056 25.97186775878305 145.10085807177853 H 0.0 **** 0.06
21530 H 4.557869676711306 25.63783560873722 145.2804650433468 H 0.0 **** 0.06
21531 C 25.630325050611873 91.43283230860311 118.44351760270371 C 0.0 **** -0.24
21532 H 25.704968084657594 92.41243787750079 117.97117216872769 H 0.0 **** 0.06
21533 H 26.42733475087806 90.78849951465503 118.0717963923515 H 0.0 **** 0.06
21534 H 24.662800391245355 90.98977630600803 118.20606805313042 H 0.0 **** 0.06
21535 H 25.72359116273435 91.54324910391654 119.52322421837746 H 0.0 **** 0.06
21536 C 82.81824030715399 41.90849518533054 0.13619640037194358 C 0.0 **** -0.24
21537 H 83.78555749332548 41.446979558765236 -0.062448119792804846 H 0.0 **** 0.06
21538 H 82.80511586885154 42.91620902590756 -0.2796129721281204 H 0.0 **** 0.06
21539 H 82.6524134007935 41.955747635237856 1.2119521650328124 H 0.0 **** 0.06
21540 H 82.03070719174849 41.31323311561334 -0.3271118658304317 H 0.0 **** 0.06
21541 C 87.46038099080921 77.9582931323601 104.08607020855521 C 0.0 **** -0.24
21542 H 86.70281395266277 77.54968865723129 104.75461445758847 H 0.0 **** 0.06
21543 H 87.98065128856575 77.14129654923087 103.58409778116228 H 0.0 **** 0.06
21544 H 88.1760520449452 78.54481819860638 104.66281379699456 H 0.0 **** 0.06
21545 H 86.98251981924474 78.5965293362708 103.34293219979125 H 0.0 **** 0.06
21546 C 93.23509435494263 85.44463894831995 98.7678655730547 C 0.0 **** -0.24
21547 H 92.75735610761004 86.20323128542634 98.14747480630069 H 0.0 **** 0.06
21548 H 92.46992183646725 84.82887537078807 99.24248030534767 H 0.0 **** 0.06
21549 H 93.8380055069917 85.93043293865679 99.53510751617034 H 0.0 **** 0.06
21550 H 93.87379246602076 84.8165586126762 98.14629040372873 H 0.0 **** 0.06
21551 C 145.3866779906686 12.495406343720099 106.60157406616273 C 0.0 **** -0.24
21552 H 144.624705033189 12.191121209449257 107.31931540701166 H 0.0 **** 0.06
21553 H 145.54220903799052 13.572402633706687 106.67216422490307 H 0.0 **** 0.06
21554 H 145.0586635536062 12.240960796339223 105.5938752822648 H 0.0 **** 0.06
21555 H 146.32089395225466 11.978428386438544 106.82147448260517 H 0.0 **** 0.06
21556 C 11.75071263622982 19.438291103189712 83.26137780110109 C 0.0 **** -0.24
21557 H 11.941856446671665 18.368459360587188 83.35083154112142 H 0.0 **** 0.06
21558 H 12.048518866534714 19.778125333659283 82.26839186760647 H 0.0 **** 0.06
21559 H 12.324928496749017 19.974061037195725 84.01623641929285 H 0.0 **** 0.06
21560 H 10.687497097514132 19.630174077351967 83.40792989808463 H 0.0 **** 0.06
21561 C 31.59167554854821 11.934491142606277 70.27839280460847 C 0.0 **** -0.24
21562 H 31.919546838365818 12.179543851601835 71.288973560815 H 0.0 **** 0.06
21563 H 31.45155722033934 10.857122811654534 70.19326834061606 H 0.0 **** 0.06
21564 H 32.34700533989076 12.260543658446835 69.5636365473489 H 0.0 **** 0.06
21565 H 30.64993689330703 12.441917254133415 70.07010960464584 H 0.0 **** 0.06
21566 C 81.65702958940862 65.80947076418455 99.2845789033928 C 0.0 **** -0.24
21567 H 82.36915699650041 65.89285439751345 98.46400680967633 H 0.0 **** 0.06
21568 H 81.54283418945185 66.78016906365144 99.76707354355773 H 0.0 **** 0.06
21569 H 82.02302947953973 65.08351019630086 100.01029728976383 H 0.0 **** 0.06
21570 H 80.69256558631216 65.4800556078102 98.89714540103725 H 0.0 **** 0.06
21571 C 155.07435552084561 17.0725812616285 46.89217358952274 C 0.0 **** -0.24
21572 H 154.05255373397358 17.242279446304224 47.23120969661284 H 0.0 **** 0.06
21573 H 155.12367498808158 16.132690828294272 46.34200049684961 H 0.0 **** 0.06
21574 H 155.73959505804365 17.023469319638565 47.75491124751136 H 0.0 **** 0.06
21575 H 155.3831689409286 17.890829026642734 46.242127665761956 H 0.0 **** 0.06
21576 C 25.416480324405995 20.343144890290617 158.09502382811638 C 0.0 **** -0.24
21577 H 24.571246254664374 20.115391730180086 157.44508787771431 H 0.0 **** 0.06
21578 H 26.326137655369322 20.404439256273754 157.49825974201693 H 0.0 **** 0.06
21579 H 25.52229919406136 19.554771143163002 158.84024463905075 H 0.0 **** 0.06
21580 H 25.243497269323974 21.295569642792636 158.5956722045132 H 0.0 **** 0.06
21581 C 36.82207159397507 100.20207373160036 43.84734046464905 C 0.0 **** -0.24
21582 H 37.19708627300315 101.21950564114678 43.73833063333552 H 0.0 **** 0.06
21583 H 36.877070716305866 99.90579558008204 44.89594824558736 H 0.0 **** 0.06
21584 H 37.42870029231574 99.52518543133363 43.2457511473184 H 0.0 **** 0.06
21585 H 35.78633751967362 100.15849301153878 43.510976830317645 H 0.0 **** 0.06
21586 C 117.63920464851762 23.41432822315818 48.49670923536959 C 0.0 **** -0.24
21587 H 116.5665410784163 23.349412598808357 48.31547273271974 H 0.0 **** 0.06
21588 H 118.16020002553935 22.713580153447083 47.84324626170738 H 0.0 **** 0.06
21589 H 117.84706289090897 23.16403964350542 49.53708245571201 H 0.0 **** 0.06
21590 H 117.98135740920296 24.428478422536244 48.29111568151313 H 0.0 **** 0.06
21591 C 32.58403915162202 35.853343030087274 82.52595415503686 C 0.0 **** -0.24
21592 H 33.36555086267761 36.58682812439014 82.32604183263238 H 0.0 **** 0.06
21593 H 31.908810417762943 36.241379416720974 83.28921217477964 H 0.0 **** 0.06
21594 H 33.03818651533004 34.92739077735246 82.87923515359527 H 0.0 **** 0.06
21595 H 32.02581293947561 35.658295849102274 81.61025990978334 H 0.0 **** 0.06
21596 C 134.4788675512761 13.177973121647646 18.47479649497064 C 0.0 **** -0.24
21597 H 133.4163556292599 13.058825733950464 18.68578028011442 H 0.0 **** 0.06
21598 H 134.76652004941587 12.50610594587819 17.66534579708862 H 0.0 **** 0.06
21599 H 135.05561221206966 12.937901177280047 19.367903939725657 H 0.0 **** 0.06
21600 H 134.6777166362661 14.208828374923549 18.180794181447737 H 0.0 **** 0.06
21601 C 147.73379840285818 71.07758050639274 65.8703905792211 C 0.0 **** -0.24
21602 H 147.18577021955787 70.52761482237534 65.10521039225524 H 0.0 **** 0.06
21603 H 148.16175994541368 70.37533947200126 66.58556908400816 H 0.0 **** 0.06
21604 H 147.05462007792914 71.75507335026111 66.38696300969528 H 0.0 **** 0.06
21605 H 148.5332692301892 71.65185174766151 65.40188251757492 H 0.0 **** 0.06
21606 C 12.22505798063704 134.5530439520418 146.88331179932135 C 0.0 **** -0.24
21607 H 11.579888854918671 134.46753597155728 147.7583546983776 H 0.0 **** 0.06
21608 H 11.71765422666791 134.1335265966606 146.01554603273092 H 0.0 **** 0.06
21609 H 13.151617869534576 134.0068332332115 147.0627345054934 H 0.0 **** 0.06
21610 H 12.451385575091741 135.60282934147554 146.7004586615934 H 0.0 **** 0.06
21611 C 140.21571815396038 72.0827019837969 94.18588306850751 C 0.0 **** -0.24
21612 H 139.39906883405337 71.41005345409546 94.4501248757615 H 0.0 **** 0.06
21613 H 140.55150454884514 71.86585403131834 93.1719455405218 H 0.0 **** 0.06
21614 H 141.0426457248632 71.93943647094088 94.8814602698416 H 0.0 **** 0.06
21615 H 139.86881350046946 73.11457602298496 94.24187403884629 H 0.0 **** 0.06
21616 C 4.714690320500324 159.11088602799427 89.36658909997061 C 0.0 **** -0.24
21617 H 4.9914493818394305 158.59422836606115 88.4483450713985 H 0.0 **** 0.06
21618 H 5.610596742016099 159.5102111405296 89.84360696247978 H 0.0 **** 0.06
21619 H 4.224184551226017 158.40984912125978 90.0435279951356 H 0.0 **** 0.06
21620 H 4.031999652827693 159.92815030102653 89.13274634652817 H 0.0 **** 0.06
21621 C 105.22591349354911 116.69133196088501 73.34008655750063 C 0.0 **** -0.24
21622 H 104.6690473876541 115.87744365858791 73.80213824738982 H 0.0 **** 0.06
21623 H 106.24500460600532 116.70035096922012 73.72720518218665 H 0.0 **** 0.06
21624 H 104.74124948840833 117.64036386272136 73.57100674056518 H 0.0 **** 0.06
21625 H 105.24827745130543 116.54858057862563 72.2600496462331 H 0.0 **** 0.06
21626 C 138.31932996178753 13.999149709443152 66.33952012377965 C 0.0 **** -0.24
21627 H 139.32203705809653 14.129676514890072 65.93300434762958 H 0.0 **** 0.06
21628 H 137.82898996228067 13.16556745172663 65.83720931808024 H 0.0 **** 0.06
21629 H 137.7424693577156 14.910538168525413 66.17960826623016 H 0.0 **** 0.06
21630 H 138.3845135454314 13.793999752363888 67.40763220786943 H 0.0 **** 0.06
21631 C 17.280998120896555 155.40987639682183 20.665764735616648 C 0.0 **** -0.24
21632 H 17.783443497711175 156.31900147338968 20.996188850229373 H 0.0 **** 0.06
21633 H 17.8346046918777 154.54001782988297 21.021014973139444 H 0.0 **** 0.06
21634 H 17.238122356064025 155.39450879115086 19.577145273561428 H 0.0 **** 0.06
21635 H 16.269705649320485 155.38686866476118 21.069997333454353 H 0.0 **** 0.06
21636 C 61.17546809116067 155.0684636806569 36.19001074219456 C 0.0 **** -0.24
21637 H 61.04011781368547 154.6114845900189 37.17026339701627 H 0.0 **** 0.06
21638 H 60.202280807547595 155.2208733763391 35.72289334343995 H 0.0 **** 0.06
21639 H 61.78001065553889 154.41086861549115 35.56399243149684 H 0.0 **** 0.06
21640 H 61.67962061455336 156.02748198720127 36.30261593928205 H 0.0 **** 0.06
21641 C 87.78599607712141 51.81230045133188 118.34711376237237 C 0.0 **** -0.24
21642 H 87.34148893870008 52.155877798157235 119.28149210353604 H 0.0 **** 0.06
21643 H 87.036591318104 51.27449048525992 117.76553845952714 H 0.0 **** 0.06
21644 H 88.62255556084017 51.148095947197305 118.56566692019658 H 0.0 **** 0.06
21645 H 88.14195691961808 52.66994531249108 117.77695588622953 H 0.0 **** 0.06
21646 C 85.1437794104753 118.16765123494397 137.36416746532208 C 0.0 **** -0.24
21647 H 85.20581114810804 119.25290680159213 137.4444436982804 H 0.0 **** 0.06
21648 H 84.98000753387271 117.88844039734627 136.32393677022773 H 0.0 **** 0.06
21649 H 84.31386402558243 117.80618273565096 137.97265237166548 H 0.0 **** 0.06
21650 H 86.07447143212953 117.72383805416825 137.7183737511644 H 0.0 **** 0.06
21651 C 70.63048671009994 69.29639403923932 118.04072553551933 C 0.0 **** -0.24
21652 H 70.16810369256325 69.2891767807206 117.05336555500375 H 0.0 **** 0.06
21653 H 71.57110078170396 68.74722110605086 118.00528405471991 H 0.0 **** 0.06
21654 H 69.9603249541027 68.82237313908445 118.75812798483955 H 0.0 **** 0.06
21655 H 70.8201334490663 70.3248620228523 118.34603446347325 H 0.0 **** 0.06
21656 C 20.177103173748485 132.19071290246185 160.68963074017006 C 0.0 **** -0.24
21657 H 19.382907297777955 132.87748987217913 160.98270951197406 H 0.0 **** 0.06
21658 H 21.13313321292823 132.71510329299872 160.70050127032863 H 0.0 **** 0.06
21659 H 19.979445738817645 131.8140170803971 159.6860109637879 H 0.0 **** 0.06
21660 H 20.212005149620325 131.35582186422124 161.39028878434618 H 0.0 **** 0.06
21661 C 68.43142367610795 92.76251988645991 92.12417864846134 C 0.0 **** -0.24
21662 H 68.40856016051401 93.32904089854873 91.19320117235912 H 0.0 **** 0.06
21663 H 67.44667901152002 92.33264944254131 92.31127019162392 H 0.0 **** 0.06
21664 H 68.70084547732387 93.42616138765075 92.94623383357794 H 0.0 **** 0.06
21665 H 69.16776496813134 91.9637805763038 92.0455795426974 H 0.0 **** 0.06
21666 C 76.37604364920591 56.84396999083472 118.11143266648568 C 0.0 **** -0.24
21667 H 77.03665143097538 56.90028568012377 118.97562691925393 H 0.0 **** 0.06
21668 H 75.63664293916753 57.6438773039452 118.16677507679987 H 0.0 **** 0.06
21669 H 75.86896935259415 55.87939545078973 118.10346680691168 H 0.0 **** 0.06
21670 H 76.96140693743462 56.9542576547251 117.19886305673276 H 0.0 **** 0.06
21671 C 27.956164636285166 141.1026541884369 37.623088565441265 C 0.0 **** -0.24
21672 H 28.229901007098675 142.1208490083976 37.89721722952601 H 0.0 **** 0.06
21673 H 28.798010603671912 140.6226211182884 37.12342318162629 H 0.0 **** 0.06
21674 H 27.098716851942612 141.12508330561533 36.95130358874019 H 0.0 **** 0.06
21675 H 27.698592177624704 140.54184289809095 38.5216891375091 H 0.0 **** 0.06
21676 C 108.19107806398205 98.07804451830339 104.44870373098308 C 0.0 **** -0.24
21677 H 107.31800355651694 98.10767979343032 105.10139702977534 H 0.0 **** 0.06
21678 H 108.86822929458947 98.89042554843553 104.71085655297304 H 0.0 **** 0.06
21679 H 107.87273191979779 98.18994642530865 103.41231792088922 H 0.0 **** 0.06
21680 H 108.70322288749321 97.12358621439839 104.56980235652173 H 0.0 **** 0.06
21681 C 13.180140249196967 59.486140179411294 127.97870959303606 C 0.0 **** -0.24
21682 H 12.945965581562518 58.87484142055702 128.84973363481018 H 0.0 **** 0.06
21683 H 13.550023296091354 60.458142081638655 128.3061171533638 H 0.0 **** 0.06
21684 H 12.28154652660757 59.62181737016397 127.37749594179161 H 0.0 **** 0.06
21685 H 13.945100645217167 58.98934793756267 127.38076732231946 H 0.0 **** 0.06
21686 C 158.36222600994506 96.01673717730091 49.01841008488668 C 0.0 **** -0.24
21687 H 159.22658614032628 95.35218653094523 49.0130361063658 H 0.0 **** 0.06
21688 H 157.69636676213406 95.75237229888717 48.196783931545326 H 0.0 **** 0.06
21689 H 158.69697234782382 97.0472082909599 48.89746777342964 H 0.0 **** 0.06
21690 H 157.83215776663081 95.91497730312739 49.96438967456305 H 0.0 **** 0.06
21691 C 103.97174370915354 1.8296954524166793 161.35793201982395 C 0.0 **** -0.24
21692 H 103.58152350291144 1.5321548394405013 160.3845561237656 H 0.0 **** 0.06
21693 H 104.44266046027491 0.9719759724121033 161.83779194858636 H 0.0 **** 0.06
21694 H 103.1552375761245 2.1930082972521774 161.98146176912834 H 0.0 **** 0.06
21695 H 104.70807181764872 2.6229894663858673 161.22528809901948 H 0.0 **** 0.06
21696 C 157.88704018607078 112.6202438221564 35.25441745621684 C 0.0 **** -0.24
21697 H 157.63381252659389 112.9098852831385 36.27358053955679 H 0.0 **** 0.06
21698 H 156.99491275332576 112.24902784820188 34.74991551991447 H 0.0 **** 0.06
21699 H 158.64518491771904 111.83705372909466 35.277126871154266 H 0.0 **** 0.06
21700 H 158.2745335248584 113.48596667963196 34.71708821839171 H 0.0 **** 0.06
21701 C 100.63718162310445 92.31756931987597 24.974583281079276 C 0.0 **** -0.24
21702 H 101.38119927187978 92.8398756418076 24.37424116170888 H 0.0 **** 0.06
21703 H 101.0931444817771 91.4410548115706 25.435311025676185 H 0.0 **** 0.06
21704 H 99.81052805970046 92.00437584013817 24.33801157023987 H 0.0 **** 0.06
21705 H 100.2647204140439 92.98475252982895 25.752253573680775 H 0.0 **** 0.06
21706 C 4.240590161140403 107.47720195855351 36.01257161045993 C 0.0 **** -0.24
21707 H 4.085000051946423 107.2012643954032 34.969376973662804 H 0.0 **** 0.06
21708 H 3.785738921340453 108.45013770246399 36.202685497638456 H 0.0 **** 0.06
21709 H 5.309782778904264 107.52901443827307 36.21986003467302 H 0.0 **** 0.06
21710 H 3.7809732534587965 106.72887152451867 36.65822222483274 H 0.0 **** 0.06
21711 C 79.12650828311288 11.0203182824852 151.74636937517374 C 0.0 **** -0.24
21712 H 79.46287753780423 12.050253264902523 151.62973535507973 H 0.0 **** 0.06
21713 H 79.9640904508787 10.398276163726521 152.063565845153 H 0.0 **** 0.06
21714 H 78.74202278230725 10.654666623350238 150.7946863431443 H 0.0 **** 0.06
21715 H 78.33774239147644 10.978625914518055 152.49703304748854 H 0.0 **** 0.06
21716 C 27.637975283488935 141.17813824484347 162.70042255048668 C 0.0 **** -0.24
21717 H 27.69773262741076 140.31360675693088 163.36263948235813 H 0.0 **** 0.06
21718 H 26.64424676759831 141.62206119171444 162.77232497811283 H 0.0 **** 0.06
21719 H 27.82251091071175 140.86145085819123 161.67369933097683 H 0.0 **** 0.06
21720 H 28.387356810203585 141.91310381486716 162.99491500436784 H 0.0 **** 0.06
21721 C 114.75266358086469 54.06008712093232 6.789754362953829 C 0.0 **** -0.24
21722 H 114.90202973976545 53.90351029742429 7.858563671178274 H 0.0 **** 0.06
21723 H 113.94660661255406 53.41603621224289 6.437283843957232 H 0.0 **** 0.06
21724 H 115.67174275343226 53.818859974357 6.255878170618189 H 0.0 **** 0.06
21725 H 114.49097833368165 55.10324899553092 6.6089643511077725 H 0.0 **** 0.06
21726 C 58.03012633742884 44.53021841549774 156.90878900816054 C 0.0 **** -0.24
21727 H 58.37705800346322 45.07867199967488 156.03275307505422 H 0.0 **** 0.06
21728 H 58.86156094066496 44.38464426838807 157.59892996788741 H 0.0 **** 0.06
21729 H 57.64067014696269 43.56102362392858 156.5988677982799 H 0.0 **** 0.06
21730 H 57.24179965200443 45.09782126351119 157.40260464307036 H 0.0 **** 0.06
21731 C 75.89202834335276 1.282157455496133 70.67075433880069 C 0.0 **** -0.24
21732 H 75.81670379838044 1.4155308916926685 69.59198394230316 H 0.0 **** 0.06
21733 H 76.83747958146284 1.693823027753126 71.02279729654188 H 0.0 **** 0.06
21734 H 75.84647428098012 0.2190032876595751 70.90900406049502 H 0.0 **** 0.06
21735 H 75.06574757769573 1.7988296947797835 71.1592118648554 H 0.0 **** 0.06
21736 C 45.8159636511283 21.58098618825739 55.83913775397201 C 0.0 **** -0.24
21737 H 45.6027258265117 22.614624732474475 56.11248709265658 H 0.0 **** 0.06
21738 H 45.026193676350104 20.93384575336008 56.22176358340187 H 0.0 **** 0.06
21739 H 46.7717681062355 21.2822259103606 56.26931212425063 H 0.0 **** 0.06
21740 H 45.862995389175694 21.495331780866984 54.75378197026373 H 0.0 **** 0.06
21741 C 3.1646006222002256 13.9947683099304 55.56193164802289 C 0.0 **** -0.24
21742 H 4.124109161781291 14.131929838747126 55.06470746203668 H 0.0 **** 0.06
21743 H 3.1201371603301027 14.630989128397502 56.44609392867426 H 0.0 **** 0.06
21744 H 3.0549126947923355 12.95181929985452 55.8586247011544 H 0.0 **** 0.06
21745 H 2.3588646687469463 14.265193905699753 54.878645134080884 H 0.0 **** 0.06
21746 C 73.00620949692171 12.033502568170718 52.53114942254214 C 0.0 **** -0.24
21747 H 72.70943677186273 13.013146999018602 52.15687601004373 H 0.0 **** 0.06
21748 H 72.4579275826936 11.812853840125172 53.4475270552677 H 0.0 **** 0.06
21749 H 74.07635261857499 12.031076586671276 52.738153452725726 H 0.0 **** 0.06
21750 H 72.7799677485383 11.275178105906122 51.78127239872521 H 0.0 **** 0.06
21751 C 88.25270604178786 56.61230105357926 13.930269885025098 C 0.0 **** -0.24
21752 H 88.86058733031717 56.53210066915942 14.831869083868071 H 0.0 **** 0.06
21753 H 88.81802055220618 57.129231780967274 13.154999625409857 H 0.0 **** 0.06
21754 H 87.34552270284178 57.17325922182694 14.15478976787756 H 0.0 **** 0.06
21755 H 87.98597639500309 55.61453338504508 13.582658300844173 H 0.0 **** 0.06
21756 C 117.41478515950985 94.00858798045357 156.56899492181984 C 0.0 **** -0.24
21757 H 117.44480830983616 93.576787615022 157.5705287359288 H 0.0 **** 0.06
21758 H 118.4317232133202 94.2004700582097 156.2263885490492 H 0.0 **** 0.06
21759 H 116.85699698316938 94.94429334210906 156.5945812269931 H 0.0 **** 0.06
21760 H 116.92689506657985 93.31180837784245 155.88785302755383 H 0.0 **** 0.06
21761 C 20.04751034304644 146.10490927175147 0.40324084761081735 C 0.0 **** -0.24
21762 H 19.318428721963755 146.25950459908455 -0.39173217743180544 H 0.0 **** 0.06
21763 H 19.991745333793347 146.9305573659705 1.112304545933398 H 0.0 **** 0.06
21764 H 21.048389946769873 146.0609667860077 -0.02621687253105165 H 0.0 **** 0.06
21765 H 19.831196544047202 145.16855207560744 0.9168996607971565 H 0.0 **** 0.06
21766 C 54.335410605606626 161.71847629846923 125.5119236044988 C 0.0 **** -0.24
21767 H 54.95338508198256 162.32395896236318 124.84898232287586 H 0.0 **** 0.06
21768 H 54.976023412597215 161.11314039161508 126.15330455980191 H 0.0 **** 0.06
21769 H 53.69710738906059 161.06571258344252 124.91558525788008 H 0.0 **** 0.06
21770 H 53.716607861989985 162.37019591281822 126.12737263918169 H 0.0 **** 0.06
21771 C 55.92214296564303 90.91538139494412 123.30205242537284 C 0.0 **** -0.24
21772 H 56.462159782449774 91.29785024933668 124.16793766920335 H 0.0 **** 0.06
21773 H 54.96385734820389 90.50751566776754 123.62289672556051 H 0.0 **** 0.06
21774 H 56.51083609046239 90.13082653661336 122.82576263943517 H 0.0 **** 0.06
21775 H 55.75337920886186 91.72497924027982 122.59195526222211 H 0.0 **** 0.06
21776 C 116.78638573518703 104.62775614872066 14.564444640886364 C 0.0 **** -0.24
21777 H 116.19990281152687 103.71489355263697 14.668974636548732 H 0.0 **** 0.06
21778 H 117.08119604617238 104.98410821788735 15.551929307664317 H 0.0 **** 0.06
21779 H 116.18709424288912 105.38880253582522 14.06529241809963 H 0.0 **** 0.06
21780 H 117.67744925439374 104.41969763815072 13.972344725615756 H 0.0 **** 0.06
21781 C 130.30579633006644 101.37998197812556 129.42785874772443 C 0.0 **** -0.24
21782 H 130.16295803494995 100.30857682683063 129.57400636651107 H 0.0 **** 0.06
21783 H 131.26020835944556 101.68102222713719 129.85981048436932 H 0.0 **** 0.06
21784 H 129.4975674725083 101.92328623185324 129.91731605328607 H 0.0 **** 0.06
21785 H 130.30114837608585 101.6044827838067 128.36196025621942 H 0.0 **** 0.06
21786 C 159.45385542865267 162.6769907584849 110.86659754071817 C 0.0 **** -0.24
21787 H 158.86909263987417 163.22119346495288 110.12517610710651 H 0.0 **** 0.06
21788 H 159.03065810658126 162.84568573533625 111.85766309731102 H 0.0 **** 0.06
21789 H 160.48417750174553 163.03064240258934 110.84630556403249 H 0.0 **** 0.06
21790 H 159.42940791053172 161.61172195796897 110.63734974287485 H 0.0 **** 0.06
21791 C 93.84520187363589 129.9005176688642 70.8944694664321 C 0.0 **** -0.24
21792 H 94.0514281173431 130.06271354737297 69.83693787712679 H 0.0 **** 0.06
21793 H 93.3170014709892 130.76525919723974 71.29708876925275 H 0.0 **** 0.06
21794 H 94.7850418944105 129.76597656557186 71.43110837799526 H 0.0 **** 0.06
21795 H 93.22901905925059 129.00988861726603 71.01295344228626 H 0.0 **** 0.06
21796 C 26.68891829771445 99.60263920883082 152.27929141367454 C 0.0 **** -0.24
21797 H 27.260045810507165 98.99101735837687 151.58036298228367 H 0.0 **** 0.06
21798 H 26.0136370090965 100.25325771769229 151.72478933682572 H 0.0 **** 0.06
21799 H 27.373541850258334 100.20867353471019 152.87310102794123 H 0.0 **** 0.06
21800 H 26.111482530685862 98.95551482257625 152.93955486186576 H 0.0 **** 0.06
21801 C 143.44234513594728 32.664742092853515 40.88191690208913 C 0.0 **** -0.24
21802 H 144.4776913419475 32.566792347218694 41.208618512153805 H 0.0 **** 0.06
21803 H 142.97287988543482 33.49682452424952 41.407314925445576 H 0.0 **** 0.06
21804 H 142.9024989258508 31.744514863388673 41.10294346475513 H 0.0 **** 0.06
21805 H 143.417357844675 32.85172977264335 39.80846634792732 H 0.0 **** 0.06
21806 C 77.93917557526879 57.728765476002465 14.619181937172243 C 0.0 **** -0.24
21807 H 78.16131017691364 57.428519603997884 13.595589017698046 H 0.0 **** 0.06
21808 H 78.24530884171496 56.93844076826514 15.303987830040057 H 0.0 **** 0.06
21809 H 76.86801417801009 57.90368935261665 14.72220508656352 H 0.0 **** 0.06
21810 H 78.48108940222623 58.644497440308825 14.855127320010126 H 0.0 **** 0.06
21811 C 131.41070907151146 68.63940305552296 101.6707918438949 C 0.0 **** -0.24
21812 H 130.95351018392563 68.65141042180183 102.66117909885773 H 0.0 **** 0.06
21813 H 131.83547662966456 67.6537994949515 101.47835478372491 H 0.0 **** 0.06
21814 H 132.19902326935264 69.39071547268112 101.62677791986616 H 0.0 **** 0.06
21815 H 130.65294502346507 68.86233517510502 100.91931344152428 H 0.0 **** 0.06
21816 C 140.9359314247134 73.2756493779074 156.21700161862762 C 0.0 **** -0.24
21817 H 141.59734861102535 73.08878916916399 155.37054344042394 H 0.0 **** 0.06
21818 H 140.6350309442264 72.32621690032242 156.65923652242358 H 0.0 **** 0.06
21819 H 140.0525365718109 73.81509508077256 155.8751116820911 H 0.0 **** 0.06
21820 H 141.46147649916995 73.87337027481398 156.96205461955986 H 0.0 **** 0.06
21821 C 94.44069141046049 81.74651675026901 14.83219543204035 C 0.0 **** -0.24
21822 H 94.58990204704367 80.6748445037918 14.705122219004096 H 0.0 **** 0.06
21823 H 93.38822715582569 81.98721832564104 14.677590635694258 H 0.0 **** 0.06
21824 H 95.0472148778664 82.28745697954163 14.106110867279654 H 0.0 **** 0.06
21825 H 94.7354860344849 82.03724616131329 15.84083283738974 H 0.0 **** 0.06
21826 C 75.17029460304957 129.6462530466929 12.824256521534153 C 0.0 **** -0.24
21827 H 75.72840003260683 130.00017203745278 11.957016903089539 H 0.0 **** 0.06
21828 H 75.1809194423937 130.4113035792409 13.600441837425137 H 0.0 **** 0.06
21829 H 75.6312568620549 128.73486988992227 13.204239909126272 H 0.0 **** 0.06
21830 H 74.14031304365312 129.43822746047744 12.532935005106253 H 0.0 **** 0.06
21831 C 36.53224179956072 126.02391593909528 58.25699603722971 C 0.0 **** -0.24
21832 H 37.12167229305726 126.33514377386294 59.11909276381667 H 0.0 **** 0.06
21833 H 35.81004653635489 125.26666426447972 58.564243165899995 H 0.0 **** 0.06
21834 H 37.19237125682605 125.60885099250487 57.49511674365776 H 0.0 **** 0.06
21835 H 36.002924559616076 126.88580220057227 57.84878869453182 H 0.0 **** 0.06
21836 C 59.91866505106931 69.86997185994441 61.64136529921001 C 0.0 **** -0.24
21837 H 60.156061337535476 68.80910956909383 61.55187725539439 H 0.0 **** 0.06
21838 H 60.80247597058376 70.41288033492316 61.97566978321538 H 0.0 **** 0.06
21839 H 59.11486202502759 70.00149562998169 62.364662611876795 H 0.0 **** 0.06
21840 H 59.60150494521969 70.25274230366672 60.67111887585328 H 0.0 **** 0.06
21841 C 135.95508398333305 45.88355847454798 7.50420738238401 C 0.0 **** -0.24
21842 H 137.04203953899867 45.95410675683935 7.457255998689732 H 0.0 **** 0.06
21843 H 135.62894913527626 45.98702307988039 8.54004716270822 H 0.0 **** 0.06
21844 H 135.63765331974957 44.91528466814344 7.1179322885298575 H 0.0 **** 0.06
21845 H 135.51430147266166 46.677720983729216 6.902685558787425 H 0.0 **** 0.06
21846 C 124.55659716389107 94.71451028035898 125.6061722645353 C 0.0 **** -0.24
21847 H 124.41886639904953 93.66990956179143 125.32955630679817 H 0.0 **** 0.06
21848 H 123.6011840097774 95.13717792883074 125.91988817653092 H 0.0 **** 0.06
21849 H 124.93517113573455 95.27084724139341 124.74833556214537 H 0.0 **** 0.06
21850 H 125.27082850798331 94.78146448782663 126.42670658471766 H 0.0 **** 0.06
21851 C 25.748688349942235 155.48270319417463 124.99183316698691 C 0.0 **** -0.24
21852 H 24.80235521866024 155.21246421981772 124.52332344828278 H 0.0 **** 0.06
21853 H 26.565703010110873 155.29904607750834 124.29351090007958 H 0.0 **** 0.06
21854 H 25.89507849104492 154.88130126725724 125.88831265096292 H 0.0 **** 0.06
21855 H 25.732308541620633 156.53897133885258 125.26142393250905 H 0.0 **** 0.06
21856 C 2.313983866148078 101.53331976064803 162.17175924418407 C 0.0 **** -0.24
21857 H 2.812522445065042 102.19111573553582 161.4596633214742 H 0.0 **** 0.06
21858 H 1.7935844599662687 102.13487042102375 162.9181198582099 H 0.0 **** 0.06
21859 H 3.0544758746430603 100.9029392680824 162.66501871276031 H 0.0 **** 0.06
21860 H 1.5958805460217036 100.90533732598047 161.64510326717973 H 0.0 **** 0.06
21861 C 109.4044138211315 26.41725193388882 103.26356227288443 C 0.0 **** -0.24
21862 H 109.48150684167933 25.489173131630793 102.69849217733369 H 0.0 **** 0.06
21863 H 108.42609570164856 26.866725624980944 103.0904959743956 H 0.0 **** 0.06
21864 H 110.18365618432657 27.10619902692892 102.93706095681029 H 0.0 **** 0.06
21865 H 109.5262169211965 26.207743173196206 104.32613270837052 H 0.0 **** 0.06
21866 C 47.086117512550246 38.4906686973775 45.56131840271436 C 0.0 **** -0.24
21867 H 46.82779335747884 38.22097789558907 44.5370116247677 H 0.0 **** 0.06
21868 H 47.78954587694187 39.32258236914139 45.55121883043438 H 0.0 **** 0.06
21869 H 47.543236422623565 37.63442510410394 46.05743841972195 H 0.0 **** 0.06
21870 H 46.184537100072504 38.78288636770954 46.09902503899278 H 0.0 **** 0.06
21871 C 39.14586224113833 34.73921851965122 82.07064323126153 C 0.0 **** -0.24
21872 H 39.36350703499187 33.67237076197068 82.03350261125217 H 0.0 **** 0.06
21873 H 39.27250917142868 35.170273638463186 81.07700852606914 H 0.0 **** 0.06
21874 H 39.82944851617401 35.22482907902241 82.76692624811272 H 0.0 **** 0.06
21875 H 38.119016039352005 34.88972715059094 82.40422514483225 H 0.0 **** 0.06
21876 C 38.521298712353996 143.0879845372315 39.38449899490904 C 0.0 **** -0.24
21877 H 37.65996334832859 142.9168146303905 38.7380006256616 H 0.0 **** 0.06
21878 H 38.18378623196509 143.2034898354268 40.41536987109659 H 0.0 **** 0.06
21879 H 39.03861550465625 143.99407522976918 39.06774218779994 H 0.0 **** 0.06
21880 H 39.20092123875746 142.2386403819351 39.31731585840696 H 0.0 **** 0.06
21881 C 89.84895754160073 131.73343164931583 114.85960965328945 C 0.0 **** -0.24
21882 H 90.86252761659671 131.87244670977435 114.48407488914717 H 0.0 **** 0.06
21883 H 89.18987503790771 131.4616830871359 114.03435583551027 H 0.0 **** 0.06
21884 H 89.49901507712764 132.66169461790525 115.31310501108919 H 0.0 **** 0.06
21885 H 89.84389114698473 130.93990775436203 115.60606258505675 H 0.0 **** 0.06
21886 C 32.41020945859473 162.60441833219465 62.59887002912308 C 0.0 **** -0.24
21887 H 32.75524512144831 163.34338074276434 63.32093495311648 H 0.0 **** 0.06
21888 H 31.543803179046286 162.99535513643377 62.06481905041818 H 0.0 **** 0.06
21889 H 32.13276581005465 161.68828716370044 63.12011330801573 H 0.0 **** 0.06
21890 H 33.20907641248904 162.38995902407908 61.88889210305638 H 0.0 **** 0.06
21891 C 101.9055904310818 143.0862582843256 105.66430968696278 C 0.0 **** -0.24
21892 H 101.29432231672254 143.12545009917042 104.76383198716428 H 0.0 **** 0.06
21893 H 102.94732037292687 143.27731550908936 105.40514228109217 H 0.0 **** 0.06
21894 H 101.81981286001368 142.09948853135566 106.12027519577981 H 0.0 **** 0.06
21895 H 101.56170732964068 143.84297818992954 106.36951196687261 H 0.0 **** 0.06
21896 C 150.4963973557813 112.0891009580019 146.13025405421894 C 0.0 **** -0.24
21897 H 151.4782746725636 112.472681195749 146.40880927902077 H 0.0 **** 0.06
21898 H 150.2123355548867 111.28937529207178 146.81429031796068 H 0.0 **** 0.06
21899 H 150.5341841580348 111.70140398695304 145.11241268095492 H 0.0 **** 0.06
21900 H 149.76372845306838 112.89409266901745 146.18523106873045 H 0.0 **** 0.06
21901 C 105.75543734871519 87.3494551481818 62.61942185569306 C 0.0 **** -0.24
21902 H 104.82039400246947 86.91954075452334 62.98024514707751 H 0.0 **** 0.06
21903 H 105.58350882991505 87.83457636960411 61.658949149177005 H 0.0 **** 0.06
21904 H 106.49544936699033 86.55838479917483 62.50054059241839 H 0.0 **** 0.06
21905 H 106.11907832275597 88.08258212269472 63.338657494535994 H 0.0 **** 0.06
21906 C 91.03984104299346 43.277994097295846 75.45090437248513 C 0.0 **** -0.24
21907 H 91.8930273958281 42.601522286935676 75.40015209690853 H 0.0 **** 0.06
21908 H 91.23667727133464 44.05529956485685 76.18954473041947 H 0.0 **** 0.06
21909 H 90.14958028087868 42.7189684077764 75.74006856034498 H 0.0 **** 0.06
21910 H 90.88005239567111 43.735117493002576 74.47477803768422 H 0.0 **** 0.06
21911 C 29.632694230386164 2.8856488689001125 31.599160741312403 C 0.0 **** -0.24
21912 H 30.2186170459797 1.967757280194128 31.559571346255325 H 0.0 **** 0.06
21913 H 28.70025502053639 2.7448265088147465 31.05146824263477 H 0.0 **** 0.06
21914 H 30.20070404237225 3.6992462044875722 31.148073074087733 H 0.0 **** 0.06
21915 H 29.411239912058818 3.1295550580364946 32.63826064819898 H 0.0 **** 0.06
21916 C 94.91686933829345 114.46916675961887 30.59812468042145 C 0.0 **** -0.24
21917 H 94.41009493275287 114.58779873407096 29.640595045364307 H 0.0 **** 0.06
21918 H 95.47642510388094 113.53342819210772 30.59886813017863 H 0.0 **** 0.06
21919 H 94.1779978258733 114.45182728046746 31.399289511366817 H 0.0 **** 0.06
21920 H 95.6015412881823 115.30222806794237 30.753479105179622 H 0.0 **** 0.06
21921 C 53.604771434897756 106.99118034313685 77.6663831672947 C 0.0 **** -0.24
21922 H 54.023803314780494 107.94707999723204 77.9802620982466 H 0.0 **** 0.06
21923 H 53.2576199767463 107.06871719541502 76.63597365520238 H 0.0 **** 0.06
21924 H 52.76767690887118 106.73092795631823 78.31384458881797 H 0.0 **** 0.06
21925 H 54.371270717140504 106.21893113677987 77.73476359946498 H 0.0 **** 0.06
21926 C 99.3194661296449 116.37768445589404 25.045988172361206 C 0.0 **** -0.24
21927 H 98.5285235747339 115.96576762648374 24.418402092685568 H 0.0 **** 0.06
21928 H 99.10497407010627 117.42470985102818 25.260400948245547 H 0.0 **** 0.06
21929 H 100.27294700396865 116.30061302983484 24.52390095783761 H 0.0 **** 0.06
21930 H 99.36987422342969 115.81738208289983 25.98003215174498 H 0.0 **** 0.06
21931 C 114.65932961319851 130.43875653763683 157.34516371988778 C 0.0 **** -0.24
21932 H 113.59944781590934 130.2770315407952 157.54526244699386 H 0.0 **** 0.06
21933 H 115.06036817790869 129.5827823395949 156.801747562951 H 0.0 **** 0.06
21934 H 115.1932817675879 130.553591934108 158.288617901802 H 0.0 **** 0.06
21935 H 114.78250607140387 131.34050050239577 156.7459248552129 H 0.0 **** 0.06
21936 C 101.51781265912939 46.860782461054384 27.65885680212567 C 0.0 **** -0.24
21937 H 100.75086897537525 46.93207732870519 28.430040490307057 H 0.0 **** 0.06
21938 H 102.40868368926601 47.400091413901734 27.98244380819925 H 0.0 **** 0.06
21939 H 101.14482426237845 47.29808056199036 26.73341429001117 H 0.0 **** 0.06
21940 H 101.7680346026142 45.81326230984743 27.49140124636706 H 0.0 **** 0.06
21941 C 9.0549796401217 21.293659710362924 64.63297581993154 C 0.0 **** -0.24
21942 H 9.367558600468556 20.753274931263547 65.52677700311156 H 0.0 **** 0.06
21943 H 8.14427897569675 21.854136078511146 64.846883350399 H 0.0 **** 0.06
21944 H 8.86453346945234 20.58345922921537 63.82829240976008 H 0.0 **** 0.06
21945 H 9.84326577505476 21.982832173346836 64.32974134339332 H 0.0 **** 0.06
21946 C 59.272852101483025 15.852169741299186 70.45815105981788 C 0.0 **** -0.24
21947 H 58.84887048470709 16.4835274174636 69.67816138764897 H 0.0 **** 0.06
21948 H 60.22905777808759 16.265109690337134 70.78138502376174 H 0.0 **** 0.06
21949 H 59.42488063742276 14.845803341845013 70.06870679726046 H 0.0 **** 0.06
21950 H 58.588939625923075 15.814177262324876 71.30656026512543 H 0.0 **** 0.06
21951 C 74.02324731359667 127.72329531654225 126.66894040123938 C 0.0 **** -0.24
21952 H 73.69758535618982 128.65677147067777 127.12825012682683 H 0.0 **** 0.06
21953 H 73.8320879236586 126.89645896071397 127.35194299398188 H 0.0 **** 0.06
21954 H 75.090044722588 127.77837205595984 126.45207708625642 H 0.0 **** 0.06
21955 H 73.47309592425752 127.56374787895197 125.74119693355271 H 0.0 **** 0.06
21956 C 106.2287072344428 100.66712930086845 159.24417911400383 C 0.0 **** -0.24
21957 H 106.1733447145061 100.11668467867273 160.1839693034231 H 0.0 **** 0.06
21958 H 106.62933685274194 101.66384966807422 159.43113712745065 H 0.0 **** 0.06
21959 H 105.23076664124451 100.7511968433015 158.8134447547829 H 0.0 **** 0.06
21960 H 106.88073150939053 100.13631544802647 158.5508777089633 H 0.0 **** 0.06
21961 C 114.4720874595929 30.858615310186963 5.468466581983137 C 0.0 **** -0.24
21962 H 114.16994481960029 30.373258448592537 6.396970445425559 H 0.0 **** 0.06
21963 H 115.54383923005935 30.72467826348236 5.321770071488096 H 0.0 **** 0.06
21964 H 114.24145251929633 31.92231817772256 5.523317075326858 H 0.0 **** 0.06
21965 H 113.93298818779385 30.41205809652604 4.63297900856449 H 0.0 **** 0.06
21966 C 109.32566967380066 33.23145150647299 15.586892900485907 C 0.0 **** -0.24
21967 H 109.51926641386632 34.14950714095336 15.032247062871846 H 0.0 **** 0.06
21968 H 108.7713370379563 33.467812050796155 16.495678302102647 H 0.0 **** 0.06
21969 H 110.27251675545585 32.75937987964369 15.850672855418338 H 0.0 **** 0.06
21970 H 108.73953874739541 32.5512402356963 14.969643361060662 H 0.0 **** 0.06
21971 C 127.8237049093384 14.41408779131222 57.153214479901365 C 0.0 **** -0.24
21972 H 128.22484408847603 13.460937447140253 56.809306609160856 H 0.0 **** 0.06
21973 H 127.39303212128567 14.953122595186706 56.30881687557013 H 0.0 **** 0.06
21974 H 128.62576856430468 15.007185970952797 57.59289425801134 H 0.0 **** 0.06
21975 H 127.05290423047032 14.234342258103219 57.902493937381905 H 0.0 **** 0.06
21976 C 70.58061291527346 158.9894682057886 33.27868134654969 C 0.0 **** -0.24
21977 H 70.85304082991418 159.55694620230574 32.38945326743908 H 0.0 **** 0.06
21978 H 70.85849872749779 159.55479698080438 34.16860759520458 H 0.0 **** 0.06
21979 H 71.1051050542751 158.0346473318155 33.27495159822678 H 0.0 **** 0.06
21980 H 69.50521478727926 158.81266812822162 33.28121985649253 H 0.0 **** 0.06
21981 C 32.74464511721777 27.33107410858588 33.78739863298739 C 0.0 **** -0.24
21982 H 33.04222552911777 26.290001420204476 33.915751407655705 H 0.0 **** 0.06
21983 H 31.83412713465055 27.521244957243425 34.35561417913746 H 0.0 **** 0.06
21984 H 32.562005325019115 27.527662733481407 32.73046130962359 H 0.0 **** 0.06
21985 H 33.54019764314849 27.98323013308061 34.145248460077624 H 0.0 **** 0.06
21986 C 76.68216559799482 76.07952648562548 146.66382799676944 C 0.0 **** -0.24
21987 H 76.8458837969668 77.02066056024245 147.18862210507325 H 0.0 **** 0.06
21988 H 75.71573684169314 75.66649419222551 146.95211019700986 H 0.0 **** 0.06
21989 H 77.47200560815791 75.37616095667232 146.92698486723611 H 0.0 **** 0.06
21990 H 76.69647469487161 76.2565481655273 145.58851156762233 H 0.0 **** 0.06
21991 C 53.55757428260982 20.994582607244077 153.4639179150044 C 0.0 **** -0.24
21992 H 52.554938744462746 21.37204164523878 153.66117780654236 H 0.0 **** 0.06
21993 H 53.5676045095813 19.91086602407013 153.58718862187683 H 0.0 **** 0.06
21994 H 54.26002623177342 21.446356894810627 154.16408082318895 H 0.0 **** 0.06
21995 H 53.847226541746906 21.247469496487305 152.44432013860308 H 0.0 **** 0.06
21996 C 157.50249633425437 31.17665796243034 124.29670354512058 C 0.0 **** -0.24
21997 H 158.52088814878346 31.45390859226177 124.57257147791617 H 0.0 **** 0.06
21998 H 157.22849939429 31.679856519810187 123.36940545575527 H 0.0 **** 0.06
21999 H 156.81769845961793 31.475529591474526 125.08965275164192 H 0.0 **** 0.06
22000 H 157.4458789182378 30.097082769810243 124.15542458681674 H 0.0 **** 0.06
22001 C 83.90198631712269 76.0541090883174 124.18884483022225 C 0.0 **** -0.24
22002 H 84.54380346930273 75.5563428445032 124.91631468530977 H 0.0 **** 0.06
22003 H 83.66181862484237 77.05610707453026 124.54243828189738 H 0.0 **** 0.06
22004 H 82.98208187843062 75.48147048173594 124.06580930166615 H 0.0 **** 0.06
22005 H 84.42028730718926 76.11932162781984 123.23215665455427 H 0.0 **** 0.06
22006 C 121.71771970793887 72.20759982782374 96.44446463158548 C 0.0 **** -0.24
22007 H 120.96126852897356 72.75016130968866 95.87801914566585 H 0.0 **** 0.06
22008 H 122.28753006424532 71.5684617111416 95.76960798238566 H 0.0 **** 0.06
22009 H 121.23261167280126 71.59481620446958 97.20373221124396 H 0.0 **** 0.06
22010 H 122.38947648022659 72.9183507840349 96.92624236671395 H 0.0 **** 0.06
22011 C 70.65506370132891 77.38636524509946 58.261743105486175 C 0.0 **** -0.24
22012 H 70.65971611579441 78.4403209987608 58.54140988777203 H 0.0 **** 0.06
22013 H 69.80881144715403 77.18913038085941 57.60269801958452 H 0.0 **** 0.06
22014 H 70.56792175520685 76.77300152466483 59.1592458187622 H 0.0 **** 0.06
22015 H 71.58354942362921 77.14301873824485 57.745009515061724 H 0.0 **** 0.06
22016 C 109.38572649244361 24.701404324215737 115.99640565643108 C 0.0 **** -0.24
22017 H 108.61480831930965 24.55279048513529 115.24084299977426 H 0.0 **** 0.06
22018 H 110.05613194560271 23.841481758845653 116.00549371066961 H 0.0 **** 0.06
22019 H 108.91994316843989 24.808521427186577 116.97595079181212 H 0.0 **** 0.06
22020 H 109.953250353258 25.602220496513468 115.76369395681189 H 0.0 **** 0.06
22021 C 89.41710523971089 131.91117612784845 53.39553310246349 C 0.0 **** -0.24
22022 H 88.71000526402524 132.72621959246075 53.24172599509417 H 0.0 **** 0.06
22023 H 89.43444072991691 131.63927149343132 54.451140614599694 H 0.0 **** 0.06
22024 H 90.41222308306 132.23095841714067 53.085570788398954 H 0.0 **** 0.06
22025 H 89.11157646341218 131.0486850819987 52.80235922532556 H 0.0 **** 0.06
22026 C 97.15740776369466 42.03061110149656 80.74050449909782 C 0.0 **** -0.24
22027 H 97.77209103977873 41.95723417354321 81.6379710274241 H 0.0 **** 0.06
22028 H 96.22121440523335 42.53341557149264 80.98153041917578 H 0.0 **** 0.06
22029 H 96.94635450035224 41.02998717715636 80.36265115196227 H 0.0 **** 0.06
22030 H 97.69124971058193 42.600904834195646 79.98060735018441 H 0.0 **** 0.06
22031 C 106.83164824109261 66.09058849045987 107.04415696341368 C 0.0 **** -0.24
22032 H 107.09958051512584 65.13589786412491 107.49632943907113 H 0.0 **** 0.06
22033 H 105.95389325178547 66.49641665338378 107.54730857392497 H 0.0 **** 0.06
22034 H 106.60982844897094 65.9429497752275 105.98698164155394 H 0.0 **** 0.06
22035 H 107.6640301909681 66.78749825126587 107.14654328378538 H 0.0 **** 0.06
22036 C 111.15283604632174 83.86508563463849 17.49396589389562 C 0.0 **** -0.24
22037 H 110.6543130649768 84.75586697579052 17.112591699777056 H 0.0 **** 0.06
22038 H 112.20536355168613 84.08596661216427 17.670531151913195 H 0.0 **** 0.06
22039 H 111.06739711096995 83.0605174334811 16.763661813359505 H 0.0 **** 0.06
22040 H 110.68408916553489 83.55939338313345 18.42903457993262 H 0.0 **** 0.06
22041 C 160.43786500236712 105.04436020021512 153.42289140328745 C 0.0 **** -0.24
22042 H 159.36167773459857 105.21540670162446 153.42383738255398 H 0.0 **** 0.06
22043 H 160.74611373770097 104.6773593470374 152.44363353966878 H 0.0 **** 0.06
22044 H 160.68860232840694 104.30486296869802 154.18378857870124 H 0.0 **** 0.06
22045 H 160.95379173652793 105.97942544897333 153.63983016420508 H 0.0 **** 0.06
22046 C 25.88599178082169 133.09377369972117 107.53354782762489 C 0.0 **** -0.24
22047 H 25.314472149586337 133.98564947229278 107.78985382305041 H 0.0 **** 0.06
22048 H 25.26951786260239 132.4301155425499 106.92604255355423 H 0.0 **** 0.06
22049 H 26.18452156872059 132.57819507278765 108.44685365278374 H 0.0 **** 0.06
22050 H 26.774036371459367 133.38034775357903 106.97083568878713 H 0.0 **** 0.06
22051 C 94.86272266602589 146.15866272471493 155.63517056129433 C 0.0 **** -0.24
22052 H 94.79648213687987 145.50818627726878 154.76338594234937 H 0.0 **** 0.06
22053 H 94.55064932668766 145.60903785254948 156.52360548156372 H 0.0 **** 0.06
22054 H 94.21235807153937 147.0223978158055 155.49413699532698 H 0.0 **** 0.06
22055 H 95.89217137136907 146.49608954128763 155.75902284568087 H 0.0 **** 0.06
22056 C 61.23694033922703 83.68751337087022 15.824407465903619 C 0.0 **** -0.24
22057 H 62.009800268028556 84.26747318955992 16.329764788723196 H 0.0 **** 0.06
22058 H 61.69961244588876 82.86775444027663 15.274029686549852 H 0.0 **** 0.06
22059 H 60.69537686798293 84.33101305260966 15.131394472900269 H 0.0 **** 0.06
22060 H 60.54438090481921 83.2839276685045 16.562406001259376 H 0.0 **** 0.06
22061 C 156.72097330521174 120.98638716269846 98.36883542595197 C 0.0 **** -0.24
22062 H 156.10637125488074 120.2138258443411 97.90737885409331 H 0.0 **** 0.06
22063 H 156.77815424225201 120.81231288934566 99.44322145383168 H 0.0 **** 0.06
22064 H 156.27476430325837 121.96382784199119 98.18273563594221 H 0.0 **** 0.06
22065 H 157.72276951071697 120.95686056231418 97.94195680634323 H 0.0 **** 0.06
22066 C 100.81080259226323 123.10860009111914 75.12743353478535 C 0.0 **** -0.24
22067 H 99.94690870544571 123.72431997657472 74.87731710739605 H 0.0 **** 0.06
22068 H 101.5707994256779 123.21788016219364 74.35373880406755 H 0.0 **** 0.06
22069 H 100.50636604467138 122.06477184108186 75.19359080625307 H 0.0 **** 0.06
22070 H 101.21870256779661 123.42883786318836 76.08676834082846 H 0.0 **** 0.06
22071 C 129.22204139715342 133.77682015748942 151.99193869540034 C 0.0 **** -0.24
22072 H 128.20932673590352 134.1731190803854 151.92048224799888 H 0.0 **** 0.06
22073 H 129.85251584440715 134.25192832993625 151.24099327604551 H 0.0 **** 0.06
22074 H 129.2030260099831 132.69999522822602 151.8231300701442 H 0.0 **** 0.06
22075 H 129.62238505015074 133.98126590654422 152.98494461283568 H 0.0 **** 0.06
22076 C 59.45488567426838 158.5810631114777 57.63754498489551 C 0.0 **** -0.24
22077 H 58.75623282436311 158.35450975750643 56.83150363328909 H 0.0 **** 0.06
22078 H 59.15832609501416 158.04028179880734 58.536471486091045 H 0.0 **** 0.06
22079 H 59.44413042591006 159.65284964791934 57.836212564386614 H 0.0 **** 0.06
22080 H 60.45894809161865 158.2760663170234 57.34373985433338 H 0.0 **** 0.06
22081 C 90.6625519199782 144.05353103365672 76.5191178003139 C 0.0 **** -0.24
22082 H 89.79069283704845 143.86304835258494 77.14463992741288 H 0.0 **** 0.06
22083 H 90.33541545400811 144.35038603977983 75.5218276003353 H 0.0 **** 0.06
22084 H 91.26399312879809 143.14725857180633 76.44929267487032 H 0.0 **** 0.06
22085 H 91.25860918493962 144.85234139796665 76.95995516616118 H 0.0 **** 0.06
22086 C 149.44881888475157 111.23162809325942 57.124664081030346 C 0.0 **** -0.24
22087 H 150.01580512148485 110.6891029769173 57.880505288719974 H 0.0 **** 0.06
22088 H 150.10501844566735 111.93930104568221 56.616293117053715 H 0.0 **** 0.06
22089 H 148.6307763657152 111.77118025752839 57.60171203294999 H 0.0 **** 0.06
22090 H 149.0437806660575 110.526311832207 56.398530560136464 H 0.0 **** 0.06
22091 C 135.89486439862154 146.22451864881938 4.469896547504675 C 0.0 **** -0.24
22092 H 135.68988427263776 145.16695790780213 4.303724101556611 H 0.0 **** 0.06
22093 H 136.28086771619311 146.364764876791 5.47997986853909 H 0.0 **** 0.06
22094 H 134.97495642310614 146.79668512911843 4.348757385068325 H 0.0 **** 0.06
22095 H 136.63459931486113 146.56874516869996 3.7464705035547468 H 0.0 **** 0.06
22096 C 29.744356206636382 120.7700063440899 72.11491816061485 C 0.0 **** -0.24
22097 H 29.305523013321505 120.82775687570899 71.11939662575591 H 0.0 **** 0.06
22098 H 29.0262980814814 120.3256573312392 72.80427173056628 H 0.0 **** 0.06
22099 H 30.00260578614771 121.77264778761264 72.456242284975 H 0.0 **** 0.06
22100 H 30.64370606460224 120.15518613688187 72.07982114368463 H 0.0 **** 0.06
22101 C 117.45619101193478 74.32556646060742 123.3184484186267 C 0.0 **** -0.24
22102 H 117.02608860386155 75.31038422572377 123.50176987076264 H 0.0 **** 0.06
22103 H 116.74784961062556 73.55676929166502 123.62855848644233 H 0.0 **** 0.06
22104 H 118.37919496827135 74.22053401707603 123.88818583376167 H 0.0 **** 0.06
22105 H 117.67038195711845 74.21522382769004 122.25543308626243 H 0.0 **** 0.06
22106 C 125.47730941446079 75.17295050165468 130.49656343647416 C 0.0 **** -0.24
22107 H 124.5681102149102 75.0031200010939 131.07317098783713 H 0.0 **** 0.06
22108 H 125.51698913345558 76.21572642955375 130.17978468671416 H 0.0 **** 0.06
22109 H 125.47719945666796 74.5256449792875 129.61958544113506 H 0.0 **** 0.06
22110 H 126.34639927929081 74.94724148005609 131.1150180587492 H 0.0 **** 0.06
22111 C 31.79314985093145 150.65751197670681 90.31730338894575 C 0.0 **** -0.24
22112 H 32.51541536588664 150.30684538292954 91.05462782719914 H 0.0 **** 0.06
22113 H 31.934906069381455 150.1121269136874 89.38418112035393 H 0.0 **** 0.06
22114 H 31.941065021235914 151.72332274254634 90.14243092379392 H 0.0 **** 0.06
22115 H 30.783481386812618 150.48697097499985 90.68846664159916 H 0.0 **** 0.06
22116 C 155.84123313309388 101.4726175976453 118.77101803910071 C 0.0 **** -0.24
22117 H 155.82319688418585 101.65884186243147 117.69753722855228 H 0.0 **** 0.06
22118 H 156.5725364633906 102.13140360152818 119.24120986151343 H 0.0 **** 0.06
22119 H 156.11451607374133 100.43402311676732 118.95499566713798 H 0.0 **** 0.06
22120 H 154.85365302031474 101.6679161708881 119.19032923561474 H 0.0 **** 0.06
22121 C 75.15414344210727 110.21790610791297 94.41444322739605 C 0.0 **** -0.24
22122 H 74.82219535288253 111.19223942822308 94.77454173559356 H 0.0 **** 0.06
22123 H 75.32166988584393 110.2671557391566 93.33853653103147 H 0.0 **** 0.06
22124 H 74.38932485337632 109.47201135979745 94.62901811930368 H 0.0 **** 0.06
22125 H 76.08243524694039 109.94231171441672 94.9148299879461 H 0.0 **** 0.06
22126 C 103.2229306164615 19.637083208961997 123.48483434625393 C 0.0 **** -0.24
22127 H 104.03913241494581 19.1239222754985 122.97655260409351 H 0.0 **** 0.06
22128 H 102.61288947702656 20.164166241549225 122.75028469922529 H 0.0 **** 0.06
22129 H 103.6316425748594 20.352067544218443 124.19798282509896 H 0.0 **** 0.06
22130 H 102.6080244133222 18.908629037075144 124.0121100773946 H 0.0 **** 0.06
22131 C 78.7389582655644 93.61050483074264 22.804622453196643 C 0.0 **** -0.24
22132 H 79.45378839878856 94.36284840264739 23.13717451079861 H 0.0 **** 0.06
22133 H 78.01098957046895 93.42698836666298 23.595372202747754 H 0.0 **** 0.06
22134 H 79.26762642357937 92.68445347689659 22.57612571372323 H 0.0 **** 0.06
22135 H 78.22583907200806 93.9659225350613 21.912037022641783 H 0.0 **** 0.06
22136 C 58.85545041340012 42.988548441439434 143.4240408292531 C 0.0 **** -0.24
22137 H 59.7086895754598 42.63824057933647 142.84286770372512 H 0.0 **** 0.06
22138 H 59.1976163251652 43.32550775662173 144.40309639296657 H 0.0 **** 0.06
22139 H 58.141273693051545 42.17525615587067 143.54795244440197 H 0.0 **** 0.06
22140 H 58.37675074928464 43.81675214000887 142.90184248474253 H 0.0 **** 0.06
22141 C 11.482768563165806 98.57700397002321 98.5369432992542 C 0.0 **** -0.24
22142 H 11.757424825354299 97.56931417778236 98.84908282303931 H 0.0 **** 0.06
22143 H 11.595812346342996 99.26100372402848 99.37796606412849 H 0.0 **** 0.06
22144 H 10.445999446768695 98.58367529875366 98.19905843912315 H 0.0 **** 0.06
22145 H 12.13202712034277 98.8941312901554 97.72068999731576 H 0.0 **** 0.06
22146 C 162.92180183108408 67.83485226720907 32.530150142769 C 0.0 **** -0.24
22147 H 164.00665808026795 67.93262743639494 32.48205844453406 H 0.0 **** 0.06
22148 H 162.6520817113624 67.1943166040137 33.36975241349967 H 0.0 **** 0.06
22149 H 162.55534120208426 67.39471242004589 31.603443425950502 H 0.0 **** 0.06
22150 H 162.47471129610244 68.82026074858669 32.664902002544466 H 0.0 **** 0.06
22151 C 31.524412508198765 27.880800697699442 87.07637423600268 C 0.0 **** -0.24
22152 H 32.30345602701025 27.691001350424187 86.33831174108673 H 0.0 **** 0.06
22153 H 31.043464219589637 26.940146677072278 87.34562621693591 H 0.0 **** 0.06
22154 H 30.783463510132933 28.560252694150734 86.65440570486273 H 0.0 **** 0.06
22155 H 31.966188543922755 28.330746404886554 87.96437400636447 H 0.0 **** 0.06
22156 C 21.53254770093372 109.96069413854195 47.11933255128358 C 0.0 **** -0.24
22157 H 21.85507443457911 109.97878015766736 48.16136149543868 H 0.0 **** 0.06
22158 H 21.21162102748596 108.95245832341504 46.85664931930921 H 0.0 **** 0.06
22159 H 22.362855408086347 110.25631485154884 46.47809128772343 H 0.0 **** 0.06
22160 H 20.70381146213566 110.65422520652663 46.984381831640675 H 0.0 **** 0.06
22161 C 24.12957570224541 69.42435923751634 112.09169521254398 C 0.0 **** -0.24
22162 H 24.808033981044026 69.14415689960646 112.8980933150259 H 0.0 **** 0.06
22163 H 24.664714762618516 69.40133843524353 111.14269254302354 H 0.0 **** 0.06
22164 H 23.74950506154596 70.43036257728039 112.27086680448599 H 0.0 **** 0.06
22165 H 23.296772753168312 68.7221334521987 112.05740172952858 H 0.0 **** 0.06
22166 C 0.204753691383047 106.91098703658824 1.3096023154300838 C 0.0 **** -0.24
22167 H -0.24199888306563366 106.23507349284662 0.5805571384751147 H 0.0 **** 0.06
22168 H 0.0206379029819459 106.53311800013265 2.314966529881019 H 0.0 **** 0.06
22169 H -0.2393648616775863 107.90156356392302 1.2057623166429323 H 0.0 **** 0.06
22170 H 1.2791488231909227 106.97394949459223 1.1349807072309943 H 0.0 **** 0.06
22171 C 83.56191855288044 106.18558516309469 63.5193360667364 C 0.0 **** -0.24
22172 H 83.42215211923902 107.16144766849084 63.0547248760231 H 0.0 **** 0.06
22173 H 84.166466564821 106.29583811003894 64.4202638558258 H 0.0 **** 0.06
22174 H 84.06766443420001 105.51992914247367 62.82025881344873 H 0.0 **** 0.06
22175 H 82.59041020322675 105.76662800210613 63.78343133331123 H 0.0 **** 0.06
22176 C 83.14902173253999 113.30034964573028 82.70032023113605 C 0.0 **** -0.24
22177 H 83.40860216289487 113.41865589954358 81.64864230261053 H 0.0 **** 0.06
22178 H 83.69256927953562 114.03668486597348 83.29275282545686 H 0.0 **** 0.06
22179 H 83.41707443206418 112.29753247049968 83.02997499121047 H 0.0 **** 0.06
22180 H 82.07685524754135 113.4504328692949 82.8280696691735 H 0.0 **** 0.06
22181 C 18.16359894443451 21.668256731119698 34.77648575071231 C 0.0 **** -0.24
22182 H 17.393809713096857 22.420755626928496 34.60245461081405 H 0.0 **** 0.06
22183 H 17.818091512201818 20.964494640775825 35.53458365243961 H 0.0 **** 0.06
22184 H 19.075562840640373 22.155121653369406 35.12115550224581 H 0.0 **** 0.06
22185 H 18.365073867659078 21.133525091276226 33.84863890759681 H 0.0 **** 0.06
22186 C 128.53382878050866 83.2380438417518 79.1897589409827 C 0.0 **** -0.24
22187 H 127.7720602323862 82.86926476058272 78.50252205400074 H 0.0 **** 0.06
22188 H 129.2498724127388 82.44321775065028 79.39899053960278 H 0.0 **** 0.06
22189 H 128.0613236542074 83.55573053607948 80.1192743675731 H 0.0 **** 0.06
22190 H 129.05121686000734 84.08478374121738 78.7374636748267 H 0.0 **** 0.06
22191 C 8.44061396283098 142.54203751960358 47.76094171474763 C 0.0 **** -0.24
22192 H 7.541739543416654 143.09781535154775 48.02880483468425 H 0.0 **** 0.06
22193 H 8.622140228157079 142.64138083158673 46.68989688222513 H 0.0 **** 0.06
22194 H 8.306602492518579 141.49062299224295 48.01198199759216 H 0.0 **** 0.06
22195 H 9.292359572587614 142.94141348641733 48.312492384970895 H 0.0 **** 0.06
22196 C 32.159758878894365 1.7975278835274366 111.99105451074433 C 0.0 **** -0.24
22197 H 32.38118975802382 2.838650038110643 112.22525287169225 H 0.0 **** 0.06
22198 H 32.26231273320769 1.637636026589803 110.91790627041519 H 0.0 **** 0.06
22199 H 31.1405203985708 1.5659450916418223 112.29798633357018 H 0.0 **** 0.06
22200 H 32.856430844987415 1.1498016804453073 112.52361793998568 H 0.0 **** 0.06
22201 C 130.0482201885737 45.764176764625546 11.129984001872572 C 0.0 **** -0.24
22202 H 129.37816659517264 46.13672347213668 10.35578637871123 H 0.0 **** 0.06
22203 H 130.692730316077 46.57337044961187 11.472355307061207 H 0.0 **** 0.06
22204 H 130.66112132231189 44.9590686705356 10.722427786444541 H 0.0 **** 0.06
22205 H 129.4614014798571 45.38609219784101 11.966999959463067 H 0.0 **** 0.06
22206 C 41.800074840417324 85.81577392986674 5.441396516304756 C 0.0 **** -0.24
22207 H 42.147049855895034 86.80775343232432 5.149256290890918 H 0.0 **** 0.06
22208 H 41.91340688341603 85.69455752436983 6.519283488800362 H 0.0 **** 0.06
22209 H 42.39072270776478 85.05879274995965 4.9264252402626525 H 0.0 **** 0.06
22210 H 40.750357365502964 85.70467388183846 5.171146940119513 H 0.0 **** 0.06
22211 C 128.05665944775365 118.22068530640519 1.1785784560388208 C 0.0 **** -0.24
22212 H 128.55196989179785 117.39613125086956 0.6655793935545091 H 0.0 **** 0.06
22213 H 128.2851764508133 118.17510956653527 2.243908790286156 H 0.0 **** 0.06
22214 H 126.97910082549936 118.14408012619523 1.0333306755146623 H 0.0 **** 0.06
22215 H 128.41169693096413 119.16749132596155 0.7709577754752956 H 0.0 **** 0.06
22216 C 158.68279114602723 80.46218907643879 87.01205478622452 C 0.0 **** -0.24
22217 H 157.89819563415384 80.10057973551773 87.67543354118474 H 0.0 **** 0.06
22218 H 158.52193359559894 80.06549409019382 86.00947571130756 H 0.0 **** 0.06
22219 H 159.6533311442562 80.13169375963744 87.38189503407786 H 0.0 **** 0.06
22220 H 158.65788758553117 81.55179231323808 86.97989147310015 H 0.0 **** 0.06
22221 C 93.88146968221389 130.47221994779045 90.57250769269179 C 0.0 **** -0.24
22222 H 94.03021315738343 130.19736319100008 91.61621740545213 H 0.0 **** 0.06
22223 H 92.81386528070745 130.48987453362156 90.34954791002541 H 0.0 **** 0.06
22224 H 94.3749893233562 129.7432326013922 89.92979650771957 H 0.0 **** 0.06
22225 H 94.3061280855374 131.46059437930666 90.39280760356264 H 0.0 **** 0.06
22226 C 62.985197885825755 46.97833526486497 0.42005869505831583 C 0.0 **** -0.24
22227 H 62.013519976167004 46.71426621649998 0.003655754714468884 H 0.0 **** 0.06
22228 H 63.60305684605936 47.428107350042836 -0.3581079178203055 H 0.0 **** 0.06
22229 H 63.47485819430926 46.08154404260236 0.7993107666124359 H 0.0 **** 0.06
22230 H 62.85066346412111 47.69073762461616 1.2341251725061753 H 0.0 **** 0.06
22231 C 63.071490232476236 126.11051977291558 70.71180592156712 C 0.0 **** -0.24
22232 H 62.63880525597226 125.93642650311526 71.69743522674034 H 0.0 **** 0.06
22233 H 63.18435568137356 127.18262242113829 70.54869498535022 H 0.0 **** 0.06
22234 H 62.41443586572444 125.69348134436481 69.94849250639209 H 0.0 **** 0.06
22235 H 64.04745634791212 125.62798291537408 70.65345184457924 H 0.0 **** 0.06
22236 C 15.589330301620208 48.60330377742312 50.8722637746926 C 0.0 **** -0.24
22237 H 15.59971058641468 49.135952859374655 51.82323120993577 H 0.0 **** 0.06
22238 H 16.066046739758093 49.218108981606235 50.10731349947255 H 0.0 **** 0.06
22239 H 14.55967633079883 48.39612433550079 50.58290379641733 H 0.0 **** 0.06
22240 H 16.134522458603428 47.66556953637081 50.97638313152723 H 0.0 **** 0.06
22241 C 10.650344050646794 54.091286180518864 89.03903908475553 C 0.0 **** -0.24
22242 H 10.779442724712709 54.36961470359074 90.08537729360623 H 0.0 **** 0.06
22243 H 11.42484646749105 53.378003621026494 88.75588563934065 H 0.0 **** 0.06
22244 H 10.728809573214704 54.98125597463115 88.41434172303818 H 0.0 **** 0.06
22245 H 9.669273930657454 53.63695665370972 88.9032969261088 H 0.0 **** 0.06
22246 C 26.852485538398525 72.82523078252464 4.408213896612921 C 0.0 **** -0.24
22247 H 27.13666102280814 73.33033942864358 5.3317865407312794 H 0.0 **** 0.06
22248 H 26.191399927108193 73.47305746552445 3.830050990266166 H 0.0 **** 0.06
22249 H 26.333992742306748 71.89740688660041 4.647016854533476 H 0.0 **** 0.06
22250 H 27.746062948705003 72.60420591254633 3.8254041152261635 H 0.0 **** 0.06
22251 C 86.10568088413108 107.51563620355432 122.51261177801999 C 0.0 **** -0.24
22252 H 86.82015138808687 108.33345126884575 122.6066610994061 H 0.0 **** 0.06
22253 H 85.15285062798897 107.9042544953711 122.15298393375787 H 0.0 **** 0.06
22254 H 85.9630966429978 107.04465847710651 123.48487797184299 H 0.0 **** 0.06
22255 H 86.48859666231148 106.77966031063124 121.80500675079492 H 0.0 **** 0.06
22256 C 158.43128182729768 99.20808393403252 103.66085061641496 C 0.0 **** -0.24
22257 H 158.3817311841583 98.46997812021863 102.8604311064108 H 0.0 **** 0.06
22258 H 158.03416335038807 100.159077519058 103.30341247447845 H 0.0 **** 0.06
22259 H 159.46869386558714 99.34007498386225 103.9697575775848 H 0.0 **** 0.06
22260 H 157.84053890905707 98.86320511299138 104.50980130718574 H 0.0 **** 0.06
22261 C 35.55578012244577 139.90256557902495 88.44617159040445 C 0.0 **** -0.24
22262 H 36.07465265105145 140.834827358312 88.67186422503806 H 0.0 **** 0.06
22263 H 34.58248851360926 140.12658734419216 88.00703195894607 H 0.0 **** 0.06
22264 H 35.418111515886125 139.33191581673677 89.36374012294135 H 0.0 **** 0.06
22265 H 36.14782302248216 139.320044817047 87.74053102157399 H 0.0 **** 0.06
22266 C 48.190239655225184 99.19190401095668 86.9412385317745 C 0.0 **** -0.24
22267 H 48.61948348979371 100.03695383911142 86.40366774445283 H 0.0 **** 0.06
22268 H 48.14697248461799 98.32524796635104 86.28048505868747 H 0.0 **** 0.06
22269 H 47.18297958779151 99.44641665899948 87.27252444236734 H 0.0 **** 0.06
22270 H 48.809508592193524 98.95865297674143 87.80692656502907 H 0.0 **** 0.06
22271 C 81.09358708936131 101.50564906155432 152.33958164306492 C 0.0 **** -0.24
22272 H 81.47485917071758 100.93531124152267 151.49267124570656 H 0.0 **** 0.06
22273 H 80.69470437589791 102.45695813400499 151.9863501203782 H 0.0 **** 0.06
22274 H 81.90112433518236 101.69025315892506 153.0465934662661 H 0.0 **** 0.06
22275 H 80.30193577752658 100.93991446614677 152.8312974527645 H 0.0 **** 0.06
22276 C 77.20743015214926 132.36666374985282 100.9753385889112 C 0.0 **** -0.24
22277 H 76.58826735246075 132.60304647026305 101.83969062356732 H 0.0 **** 0.06
22278 H 76.57786259232819 132.29191307897264 100.08763202873666 H 0.0 **** 0.06
22279 H 77.715291579716 131.41676118371936 101.14084002958498 H 0.0 **** 0.06
22280 H 77.94679044368284 133.1539243343869 100.83154722174646 H 0.0 **** 0.06
22281 C 84.12018284377905 61.99306677785458 121.60094982798444 C 0.0 **** -0.24
22282 H 84.4957942855209 61.01287455309398 121.30667595215871 H 0.0 **** 0.06
22283 H 83.82688472555859 62.55114391291694 120.71060211828134 H 0.0 **** 0.06
22284 H 84.90240583849874 62.537414084812056 122.12920547239628 H 0.0 **** 0.06
22285 H 83.25695857111327 61.87054606300296 122.25445297198186 H 0.0 **** 0.06
22286 C 8.59413935091483 67.7190541258162 89.14416228555889 C 0.0 **** -0.24
22287 H 8.5658671646814 67.07765654771983 88.26407896848036 H 0.0 **** 0.06
22288 H 8.343975311153926 67.13306662399667 90.02913826733906 H 0.0 **** 0.06
22289 H 7.871324209309094 68.52734913953614 89.02754609031554 H 0.0 **** 0.06
22290 H 9.593869934460749 68.13854666517344 89.25661060693618 H 0.0 **** 0.06
22291 C 157.8976908111963 97.85731344045456 89.25025765765301 C 0.0 **** -0.24
22292 H 158.08334211162276 96.93855287592365 88.69439575074222 H 0.0 **** 0.06
22293 H 158.24568257351248 97.73775420988107 90.27590874697992 H 0.0 **** 0.06
22294 H 156.82835680275775 98.07019999896087 89.25166069256119 H 0.0 **** 0.06
22295 H 158.43202632049113 98.68186116911085 88.77845000683259 H 0.0 **** 0.06
22296 C 14.259298895581338 89.94488430445296 9.658948801994313 C 0.0 **** -0.24
22297 H 13.948935433446195 88.93618783181239 9.930261872664204 H 0.0 **** 0.06
22298 H 14.73008532066325 90.422904418554 10.518546845874255 H 0.0 **** 0.06
22299 H 13.388349784380466 90.52370175422388 9.352120103712252 H 0.0 **** 0.06
22300 H 14.972003583145664 89.89623915107046 8.834872608350452 H 0.0 **** 0.06
22301 C 94.38721084588434 9.118724414114894 79.21946013425685 C 0.0 **** -0.24
22302 H 94.2730934403483 8.92959572465486 78.15187059436161 H 0.0 **** 0.06
22303 H 93.6490302424125 8.536196077501756 79.77201332966166 H 0.0 **** 0.06
22304 H 94.23683372717824 10.1797972498332 79.41861840525611 H 0.0 **** 0.06
22305 H 95.38961007339185 8.827955273422788 79.53503417729902 H 0.0 **** 0.06
22306 C 2.133617873318599 96.17278226239415 115.28091954965319 C 0.0 **** -0.24
22307 H 1.3727192656610896 96.68459955245515 115.86974992638787 H 0.0 **** 0.06
22308 H 2.488724429080605 95.29887090519924 115.82778347537831 H 0.0 **** 0.06
22309 H 2.9672860612624845 96.84960023187148 115.09524610474571 H 0.0 **** 0.06
22310 H 1.7045077243273 95.85678687522835 114.32953462124374 H 0.0 **** 0.06
22311 C 147.34474904907984 125.7400872308522 147.21130632020422 C 0.0 **** -0.24
22312 H 146.4881914068154 126.31985571668847 147.55586745785217 H 0.0 **** 0.06
22313 H 147.70900777458994 125.11281261918705 148.02508270659047 H 0.0 **** 0.06
22314 H 148.13666807432944 126.41734232171555 146.89112564932347 H 0.0 **** 0.06
22315 H 147.04387947386715 125.11074760969336 146.37367036135265 H 0.0 **** 0.06
22316 C 40.74126822158155 59.72866717755559 89.55808593751226 C 0.0 **** -0.24
22317 H 40.899335078664876 58.81241605857099 88.98879547881155 H 0.0 **** 0.06
22318 H 39.87741663104464 60.260700191594694 89.15752731881432 H 0.0 **** 0.06
22319 H 41.62521404096293 60.361798149191344 89.48089254903549 H 0.0 **** 0.06
22320 H 40.56238595127559 59.48027680008896 90.60364280968662 H 0.0 **** 0.06
22321 C 154.09751147956803 135.15719626075037 77.82570911414787 C 0.0 **** -0.24
22322 H 154.74454311123145 135.93405125398246 77.4187456844818 H 0.0 **** 0.06
22323 H 154.67536359279345 134.5184026255805 78.49444113456234 H 0.0 **** 0.06
22324 H 153.69226526807398 134.55879720752628 77.01039880210348 H 0.0 **** 0.06
22325 H 153.27991395494305 135.6183391881079 78.37968685864307 H 0.0 **** 0.06
22326 C 15.403025373978977 58.209825838915776 66.06420600157784 C 0.0 **** -0.24
22327 H 15.48154893268616 57.52167510241631 65.22252407126854 H 0.0 **** 0.06
22328 H 16.03786057822647 57.86005629270717 66.87909889221794 H 0.0 **** 0.06
22329 H 14.368118123858181 58.25288843198709 66.40259842369545 H 0.0 **** 0.06
22330 H 15.725989381035681 59.20328808280202 65.75238090914672 H 0.0 **** 0.06
22331 C 139.3711586195591 35.449300982810996 14.62893184481237 C 0.0 **** -0.24
22332 H 138.85908567040593 34.49508683106353 14.501187834302868 H 0.0 **** 0.06
22333 H 138.90600342303793 36.19959647452981 13.989784627261429 H 0.0 **** 0.06
22334 H 140.42047728249992 35.337175119837184 14.354698344291137 H 0.0 **** 0.06
22335 H 139.29910545825143 35.76316589734404 15.67055463197795 H 0.0 **** 0.06
22336 C 9.849350875306804 146.8996940795605 123.83347513384902 C 0.0 **** -0.24
22337 H 10.618522591942074 146.2222169809077 124.2034974161131 H 0.0 **** 0.06
22338 H 9.343221672486102 147.37008479628054 124.67687639032928 H 0.0 **** 0.06
22339 H 9.125268110841922 146.33820630580774 123.24260247081062 H 0.0 **** 0.06
22340 H 10.309609078636903 147.66764517484512 123.21090916160188 H 0.0 **** 0.06
22341 C 24.463528255932573 113.55315651063856 16.6091559887206 C 0.0 **** -0.24
22342 H 23.634175867743267 114.11117269133254 16.17351457538126 H 0.0 **** 0.06
22343 H 24.517428503758765 112.56678862620964 16.148055103901868 H 0.0 **** 0.06
22344 H 24.304620526539566 113.4449700429663 17.681794259412555 H 0.0 **** 0.06
22345 H 25.39459049737161 114.08974353443193 16.43149262165045 H 0.0 **** 0.06
22346 C 150.66286918318957 0.8772943769513688 29.83247849983013 C 0.0 **** -0.24
22347 H 150.84325869086467 -0.10473766889461444 29.394284972183243 H 0.0 **** 0.06
22348 H 151.61528997403758 1.3746919990202286 30.013572604001126 H 0.0 **** 0.06
22349 H 150.12743892862068 0.7598884324487187 30.774289056005557 H 0.0 **** 0.06
22350 H 150.0638916370305 1.4758454509463945 29.14625961212397 H 0.0 **** 0.06
22351 C 21.94058189747946 67.98441943882204 107.13971471426822 C 0.0 **** -0.24
22352 H 22.884559035829653 68.16405282155546 106.62662132955887 H 0.0 **** 0.06
22353 H 22.098350079007105 67.27196711715357 107.95045067408842 H 0.0 **** 0.06
22354 H 21.21564022171907 67.57829377462218 106.43489534607619 H 0.0 **** 0.06
22355 H 21.56425218345126 68.92230209264551 107.5481751523431 H 0.0 **** 0.06
22356 C 159.72570781035103 123.86862686712487 4.293129440163312 C 0.0 **** -0.24
22357 H 158.92036194483555 123.64314835669447 4.992716716028582 H 0.0 **** 0.06
22358 H 160.5533637800179 123.17813844151004 4.457206264285617 H 0.0 **** 0.06
22359 H 160.06672678839814 124.89118299762117 4.450030125762737 H 0.0 **** 0.06
22360 H 159.35919648122263 123.76044299067559 3.271989601412713 H 0.0 **** 0.06
22361 C 10.170108498059278 42.822882821137895 27.75138392049437 C 0.0 **** -0.24
22362 H 10.227199717672022 41.787108494549756 27.418070306495494 H 0.0 **** 0.06
22363 H 9.418036045606755 42.911591045075866 28.536861994198595 H 0.0 **** 0.06
22364 H 9.894092777745755 43.459841096180625 26.910835680623542 H 0.0 **** 0.06
22365 H 11.139820007601486 43.133536125990304 28.13999164185406 H 0.0 **** 0.06
22366 C 71.13228331860252 54.82860240038673 96.46437926272765 C 0.0 **** -0.24
22367 H 70.59002871700925 53.910857043125915 96.23699135812927 H 0.0 **** 0.06
22368 H 70.51865520027428 55.689041066478225 96.19725439556508 H 0.0 **** 0.06
22369 H 72.06104576647579 54.852903184787166 95.89559494414534 H 0.0 **** 0.06
22370 H 71.35833166512491 54.86056387539996 97.53007643211436 H 0.0 **** 0.06
22371 C 48.52704745218628 145.28429417679328 21.363267188925626 C 0.0 **** -0.24
22372 H 47.71970512422138 144.59825531159058 21.10790492958275 H 0.0 **** 0.06
22373 H 48.11400371706965 146.27529078826282 21.55541944653705 H 0.0 **** 0.06
22374 H 49.233274711854946 145.33951832909497 20.53531357741111 H 0.0 **** 0.06
22375 H 49.04028220650183 144.92504049420202 22.254964289495597 H 0.0 **** 0.06
22376 C 139.12019394027226 38.766879379355345 120.91826138645195 C 0.0 **** -0.24
22377 H 140.17564906592887 38.834815048064854 120.65596754869836 H 0.0 **** 0.06
22378 H 138.5415358857078 39.42757102563314 120.27250425862377 H 0.0 **** 0.06
22379 H 138.98546901184181 39.065069267646095 121.95851658263507 H 0.0 **** 0.06
22380 H 138.77880921722635 37.73935935199734 120.78806554911009 H 0.0 **** 0.06
22381 C 52.46737815520609 32.438696436560036 87.20679855820384 C 0.0 **** -0.24
22382 H 53.04149063339452 33.31242757995403 87.51613110634068 H 0.0 **** 0.06
22383 H 52.96485840415882 31.535021261682147 87.55971845448494 H 0.0 **** 0.06
22384 H 52.401527646596705 32.41576525687148 86.11888324115503 H 0.0 **** 0.06
22385 H 51.46526513994833 32.49240702721045 87.63069181568324 H 0.0 **** 0.06
22386 C 116.80876288126723 160.7926904210696 58.04639652052806 C 0.0 **** -0.24
22387 H 116.00647994928076 161.1632602328435 57.40714225692244 H 0.0 **** 0.06
22388 H 117.67345980185445 160.5380171542874 57.43340906145609 H 0.0 **** 0.06
22389 H 116.46728235651437 159.90542632132224 58.579556275698266 H 0.0 **** 0.06
22390 H 117.08662262608851 161.56403559189448 58.764741457503774 H 0.0 **** 0.06
22391 C 105.18704493329051 50.23360820543277 58.839219714342946 C 0.0 **** -0.24
22392 H 105.56166799576681 50.97028291456341 58.12964678481234 H 0.0 **** 0.06
22393 H 104.97108795718407 49.302467866297064 58.315538415108804 H 0.0 **** 0.06
22394 H 104.27486732922142 50.60820826517909 59.30423120417515 H 0.0 **** 0.06
22395 H 105.93890302663027 50.05295945838775 59.60750435957809 H 0.0 **** 0.06
22396 C 78.19896521181258 151.83928741836948 19.47720716460806 C 0.0 **** -0.24
22397 H 79.01387360759078 152.5618190902391 19.515809378615245 H 0.0 **** 0.06
22398 H 77.62830122909722 151.8858324274312 20.404296164219076 H 0.0 **** 0.06
22399 H 78.60785505757167 150.837180476889 19.351030286889902 H 0.0 **** 0.06
22400 H 77.54611645195953 152.0743002656982 18.63569581057076 H 0.0 **** 0.06
22401 C 34.894044994778824 102.35575298463823 131.03958140369045 C 0.0 **** -0.24
22402 H 35.084829855208895 101.69192135442154 131.8818767867361 H 0.0 **** 0.06
22403 H 34.624723750213434 103.34520518978047 131.40975335184217 H 0.0 **** 0.06
22404 H 34.07500628567976 101.95660747112984 130.4410512738462 H 0.0 **** 0.06
22405 H 35.790672256198775 102.42908774028538 130.42461196900015 H 0.0 **** 0.06
22406 C 52.82002065868157 63.20833076937453 54.50189119124994 C 0.0 **** -0.24
22407 H 52.32038652550982 62.63920379832793 53.717451835196414 H 0.0 **** 0.06
22408 H 52.92489682918922 64.24617737554281 54.1862042304881 H 0.0 **** 0.06
22409 H 53.80591006057966 62.783177122772386 54.68724568771978 H 0.0 **** 0.06
22410 H 52.227568685543545 63.1637061062233 55.416294923599935 H 0.0 **** 0.06
22411 C 121.04588105600595 94.22202687864815 151.6615751524871 C 0.0 **** -0.24
22412 H 120.64574837527033 94.3499362128039 152.66707894557982 H 0.0 **** 0.06
22413 H 122.11110320338389 94.44922042395571 151.66286810761756 H 0.0 **** 0.06
22414 H 120.53071190116813 94.89635230427982 150.97728586708502 H 0.0 **** 0.06
22415 H 120.89385229972643 93.19229827022684 151.33838619813437 H 0.0 **** 0.06
22416 C 80.44914696443784 10.323837067628354 140.12157124740915 C 0.0 **** -0.24
22417 H 81.40612354131483 10.021076167155442 140.5450963190695 H 0.0 **** 0.06
22418 H 79.96378146687324 9.461731832708807 139.6649316409945 H 0.0 **** 0.06
22419 H 80.6132570367544 11.09220534263794 139.36564535589787 H 0.0 **** 0.06
22420 H 79.81287944447529 10.722881235451453 140.91210099287656 H 0.0 **** 0.06
22421 C 143.17426075760142 17.71326593593608 125.24985311509408 C 0.0 **** -0.24
22422 H 143.12048012478255 18.241171189266794 126.2026461575955 H 0.0 **** 0.06
22423 H 144.19749600270984 17.37928300990957 125.07633968308102 H 0.0 **** 0.06
22424 H 142.8700985335714 18.38498046089221 124.4463894696479 H 0.0 **** 0.06
22425 H 142.5084315636261 16.851119879929385 125.27476280388129 H 0.0 **** 0.06
22426 C 158.09486312140393 91.56407032586995 0.08920514434760207 C 0.0 **** -0.24
22427 H 159.007534803449 91.72729609096601 0.663078502921465 H 0.0 **** 0.06
22428 H 158.28989616601348 90.84563453615408 -0.706841322074407 H 0.0 **** 0.06
22429 H 157.7656036538508 92.50803518762152 -0.3464511814349649 H 0.0 **** 0.06
22430 H 157.3169576083671 91.17642216914999 0.7463388819152783 H 0.0 **** 0.06
22431 C 18.828759048287793 9.57451914705306 112.01371272653486 C 0.0 **** -0.24
22432 H 19.294574328396116 10.542918521722427 112.19675817837205 H 0.0 **** 0.06
22433 H 19.596440009515874 8.846745682228125 111.74792027405002 H 0.0 **** 0.06
22434 H 18.113998105247 9.663720660863504 111.19512322923254 H 0.0 **** 0.06
22435 H 18.311508077205254 9.243965313688875 112.91453038713172 H 0.0 **** 0.06
22436 C 105.81704847816815 64.66145405387448 18.273522445400374 C 0.0 **** -0.24
22437 H 105.55416067547696 63.825371788576206 18.920470868393068 H 0.0 **** 0.06
22438 H 106.46465041836393 65.35071995182346 18.815347235630156 H 0.0 **** 0.06
22439 H 104.90959710890661 65.18137121088887 17.965157334900596 H 0.0 **** 0.06
22440 H 106.33896568248826 64.28910119451058 17.391784588637677 H 0.0 **** 0.06
22441 C 156.55543816167472 122.95665462856482 11.52835508977256 C 0.0 **** -0.24
22442 H 157.24375156109053 122.12246861400138 11.393232156513932 H 0.0 **** 0.06
22443 H 157.00341165295237 123.69118277480095 12.198818406159234 H 0.0 **** 0.06
22444 H 155.62246576241654 122.59226011723115 11.958314387551582 H 0.0 **** 0.06
22445 H 156.3537616042388 123.42126516929716 10.5629797849777 H 0.0 **** 0.06
22446 C 64.86256476772496 48.41773573736924 78.1938445602616 C 0.0 **** -0.24
22447 H 64.05020696856201 47.72010651974017 77.98794855738618 H 0.0 **** 0.06
22448 H 65.61326566342402 47.926931457098306 78.813548675779 H 0.0 **** 0.06
22449 H 64.46911724965557 49.2871275038342 78.71994991334685 H 0.0 **** 0.06
22450 H 65.31531158335319 48.73421189639322 77.25485841591373 H 0.0 **** 0.06
22451 C 19.447503742866907 3.225085150882876 99.20938209727419 C 0.0 **** -0.24
22452 H 20.178299070432637 3.8646188141845528 99.70618667884591 H 0.0 **** 0.06
22453 H 19.72329711164658 3.1043451212620425 98.16266644194556 H 0.0 **** 0.06
22454 H 18.46072605853884 3.683222173491231 99.2749421504542 H 0.0 **** 0.06
22455 H 19.428722440701073 2.250721117538234 99.69625354773532 H 0.0 **** 0.06
22456 C 94.27573749736312 74.20823198528649 122.2874110346857 C 0.0 **** -0.24
22457 H 94.87043744481164 73.79270133379049 121.47387485953863 H 0.0 **** 0.06
22458 H 94.41607878274523 75.28848962832194 122.32464814355811 H 0.0 **** 0.06
22459 H 94.59283176885423 73.76647287171002 123.23209350258247 H 0.0 **** 0.06
22460 H 93.22224988180088 73.98382254873738 122.11677064931158 H 0.0 **** 0.06
22461 C 160.43202672915731 113.88763760988712 1.435534322238027 C 0.0 **** -0.24
22462 H 160.85959511442547 113.5400037529958 0.49408974601550426 H 0.0 **** 0.06
22463 H 159.34450616314757 113.84967303266143 1.375972985399244 H 0.0 **** 0.06
22464 H 160.7506711742696 114.9133647286107 1.6216161770594795 H 0.0 **** 0.06
22465 H 160.77485566335116 113.2477055414756 2.2485485432909513 H 0.0 **** 0.06
22466 C 151.67664609688478 158.0341191420775 143.1875905191721 C 0.0 **** -0.24
22467 H 151.55776645322666 158.38928432226757 144.21121114233145 H 0.0 **** 0.06
22468 H 150.7052330821832 158.02557876513242 142.6918923116933 H 0.0 **** 0.06
22469 H 152.08799269707023 157.02548601777005 143.19798317490887 H 0.0 **** 0.06
22470 H 152.3539421901179 158.6978789451164 142.64881707273506 H 0.0 **** 0.06
22471 C 123.79676059811862 80.68963185047551 162.4411396864549 C 0.0 **** -0.24
22472 H 123.44711334385266 79.77262057748521 161.96712811372095 H 0.0 **** 0.06
22473 H 124.83334540988179 80.56372714559555 162.75512346737528 H 0.0 **** 0.06
22474 H 123.17703213381625 80.90729915836022 163.3109600284432 H 0.0 **** 0.06
22475 H 123.72851931010547 81.51391420612993 161.73137664612253 H 0.0 **** 0.06
22476 C 114.21019666069765 125.26309080361548 131.36304435834725 C 0.0 **** -0.24
22477 H 113.21096849531574 125.69834706276586 131.34667608357964 H 0.0 **** 0.06
22478 H 114.85268967068157 125.80114573993708 130.6658804747143 H 0.0 **** 0.06
22479 H 114.15464973138467 124.21442647703665 131.07054558599864 H 0.0 **** 0.06
22480 H 114.62197136364705 125.33770720097883 132.36952229840225 H 0.0 **** 0.06
22481 C 6.147506408185947 59.06905727216491 137.8530289837165 C 0.0 **** -0.24
22482 H 5.697147994688635 59.9674280990792 137.42951977794147 H 0.0 **** 0.06
22483 H 6.383915313012118 59.242174734404756 138.90280516150668 H 0.0 **** 0.06
22484 H 7.061125158694061 58.83062225375758 137.30853070602296 H 0.0 **** 0.06
22485 H 5.447070450488816 58.23826018303197 137.76943763667578 H 0.0 **** 0.06
22486 C 83.81534641943838 147.73903110511617 145.5638326757407 C 0.0 **** -0.24
22487 H 84.1651292096854 148.12650978704357 144.606629904433 H 0.0 **** 0.06
22488 H 84.66837543660887 147.39789487074557 146.1512179412134 H 0.0 **** 0.06
22489 H 83.1344347167772 146.9059837113154 145.39158249745105 H 0.0 **** 0.06
22490 H 83.29347641773569 148.52872157953482 146.10560712455822 H 0.0 **** 0.06
22491 C 36.09936582940891 65.49988604261853 152.36470659248965 C 0.0 **** -0.24
22492 H 35.95005789074028 66.20296956703474 153.1835041995106 H 0.0 **** 0.06
22493 H 35.54476845387501 65.83885022191215 151.4888150814249 H 0.0 **** 0.06
22494 H 35.73981378543397 64.51433761128779 152.66256647456368 H 0.0 **** 0.06
22495 H 37.160069186466 65.44221478639196 152.12373518001567 H 0.0 **** 0.06
22496 C 49.210997706475354 84.47115400753057 160.69055087505362 C 0.0 **** -0.24
22497 H 48.39251083830489 85.1114133021062 161.02042229746294 H 0.0 **** 0.06
22498 H 48.84912298078096 83.44868717375613 160.57784709263342 H 0.0 **** 0.06
22499 H 50.010752421608686 84.4944279311678 161.43035865872056 H 0.0 **** 0.06
22500 H 49.589243854935276 84.83071531740876 159.73339342527066 H 0.0 **** 0.06
22501 C 116.61433472975932 143.90644627893118 124.76094386017647 C 0.0 **** -0.24
22502 H 116.66377539012532 143.4745820913516 125.76070323702317 H 0.0 **** 0.06
22503 H 115.85578463268803 144.68950286304832 124.74129651540159 H 0.0 **** 0.06
22504 H 116.35310799944227 143.1295840677692 124.04188713285282 H 0.0 **** 0.06
22505 H 117.58325426416042 144.3321480408875 124.50088465879887 H 0.0 **** 0.06
22506 C 33.40693288664153 128.8785430517743 113.62733930231161 C 0.0 **** -0.24
22507 H 32.59519872295954 128.62757362561206 114.30932963769382 H 0.0 **** 0.06
22508 H 33.14513647689557 129.77593438662691 113.06548493422261 H 0.0 **** 0.06
22509 H 33.56937418825896 128.05152760543731 112.93569549991966 H 0.0 **** 0.06
22510 H 34.318020886232034 129.05916943796836 114.19661127733991 H 0.0 **** 0.06
22511 C 138.8693460823868 5.6890920229456015 157.04661413297947 C 0.0 **** -0.24
22512 H 138.72522670245556 6.427742729651754 156.25717278702191 H 0.0 **** 0.06
22513 H 139.01414976383737 6.200465399323093 157.99907781555683 H 0.0 **** 0.06
22514 H 139.7459569751465 5.082201283517804 156.82129033963406 H 0.0 **** 0.06
22515 H 137.98977695778854 5.048817052960317 157.1081035777694 H 0.0 **** 0.06
22516 C 55.097177615734154 15.339925621691151 139.30953824973759 C 0.0 **** -0.24
22517 H 54.47499571238387 14.792824833172403 138.60057260091048 H 0.0 **** 0.06
22518 H 54.48906011140343 15.657766632406805 140.1564066256597 H 0.0 **** 0.06
22519 H 55.52394704442031 16.214158971637943 138.8191040283894 H 0.0 **** 0.06
22520 H 55.900166056113335 14.69283638584534 139.6615892713831 H 0.0 **** 0.06
22521 C 142.3008979128369 36.08295814763795 37.02991004254511 C 0.0 **** -0.24
22522 H 143.2026102996416 35.896737041719945 36.44648881533574 H 0.0 **** 0.06
22523 H 142.5548981225985 36.11236388484636 38.09063438225006 H 0.0 **** 0.06
22524 H 141.5811279907046 35.28397032621967 36.85114878977777 H 0.0 **** 0.06
22525 H 141.8666891213651 37.03716462529752 36.73322410059204 H 0.0 **** 0.06
22526 C 134.78348650462877 93.9665287849379 24.899097374972428 C 0.0 **** -0.24
22527 H 134.93673165269698 93.98925120033012 23.820368280667395 H 0.0 **** 0.06
22528 H 135.74695259786466 93.88477221142087 25.40214190862926 H 0.0 **** 0.06
22529 H 134.16345595194215 93.10841773342369 25.159373009637704 H 0.0 **** 0.06
22530 H 134.284584450549 94.88378759451491 25.214276558845427 H 0.0 **** 0.06
22531 C 160.42084935010695 64.20164049077415 115.5270565920627 C 0.0 **** -0.24
22532 H 161.33574953576897 63.612759111521385 115.45882728222671 H 0.0 **** 0.06
22533 H 159.61350650609546 63.67942904832323 115.01284105132856 H 0.0 **** 0.06
22534 H 160.57943161326932 65.17452468811896 115.06232242501696 H 0.0 **** 0.06
22535 H 160.15538354766946 64.33927467228776 116.5747004063621 H 0.0 **** 0.06
22536 C 49.45769378274531 161.03620346153687 62.125321057145726 C 0.0 **** -0.24
22537 H 48.635271026606915 160.50427773253068 61.64753274634785 H 0.0 **** 0.06
22538 H 49.07224144610183 161.6318002495306 62.95303165126731 H 0.0 **** 0.06
22539 H 49.93577049827928 161.69225062693775 61.398079268809 H 0.0 **** 0.06
22540 H 50.18561483072534 160.31815699724956 62.50100314815951 H 0.0 **** 0.06
22541 C 122.54420939015623 145.54747211596091 41.047986161094144 C 0.0 **** -0.24
22542 H 123.46767595787352 145.3053214384407 40.52119357495336 H 0.0 **** 0.06
22543 H 122.65351012028219 146.50953741938702 41.54773262972998 H 0.0 **** 0.06
22544 H 122.33527863931357 144.77423634949426 41.787254208239105 H 0.0 **** 0.06
22545 H 121.72161459620133 145.59927702751472 40.334687546787436 H 0.0 **** 0.06
22546 C 87.036136401755 104.30611223334168 94.4166237248592 C 0.0 **** -0.24
22547 H 86.02348257789289 104.42818457733193 94.03245133204324 H 0.0 **** 0.06
22548 H 87.64655588120233 103.79114367767889 93.67497468790062 H 0.0 **** 0.06
22549 H 87.0078342120933 103.7200006148359 95.33570916218297 H 0.0 **** 0.06
22550 H 87.46544282998569 105.28619589766478 94.62451277464675 H 0.0 **** 0.06
22551 C 106.28732397265028 76.79622785420591 61.797225796779514 C 0.0 **** -0.24
22552 H 107.15171335554675 76.53979164929788 61.185473971863985 H 0.0 **** 0.06
22553 H 106.57967211923918 76.81802338539389 62.84748405004515 H 0.0 **** 0.06
22554 H 105.5051561128027 76.0515669653985 61.6520106659155 H 0.0 **** 0.06
22555 H 105.91361084989163 77.77755654888894 61.50433100095586 H 0.0 **** 0.06
22556 C 72.03511127666519 131.38439631922486 10.42956230749241 C 0.0 **** -0.24
22557 H 72.56568308630335 130.75572857677088 11.144440108654962 H 0.0 **** 0.06
22558 H 70.96149305870716 131.22144038604327 10.529056891410626 H 0.0 **** 0.06
22559 H 72.35009479962537 131.12831371935312 9.417797537874996 H 0.0 **** 0.06
22560 H 72.26428139737013 132.43132704823242 10.627370165104999 H 0.0 **** 0.06
22561 C 121.00610625592049 51.148521960502464 38.40118801829556 C 0.0 **** -0.24
22562 H 121.87492227645066 50.51914737735474 38.59234814532846 H 0.0 **** 0.06
22563 H 120.41093501097737 50.71191027316905 37.59841637220876 H 0.0 **** 0.06
22564 H 121.33656838982029 52.144873778579566 38.108290977049194 H 0.0 **** 0.06
22565 H 120.40166433760288 51.21680998078931 39.305422808625735 H 0.0 **** 0.06
22566 C 141.09998967409584 127.23337051460913 147.30554630938482 C 0.0 **** -0.24
22567 H 140.32722628811158 126.46419156646851 147.31600457277182 H 0.0 **** 0.06
22568 H 141.09017922877123 127.74511576393317 146.34205605153068 H 0.0 **** 0.06
22569 H 142.074719013268 126.7713408827102 147.46242904548626 H 0.0 **** 0.06
22570 H 140.9064025058493 127.95286129084079 148.1007210494943 H 0.0 **** 0.06
22571 C 108.74146258394154 136.6915148669325 147.93862528629353 C 0.0 **** -0.24
22572 H 108.36906333436121 136.0166078245377 148.70925239279586 H 0.0 **** 0.06
22573 H 108.88850667784607 136.13856947268397 147.01099428512788 H 0.0 **** 0.06
22574 H 109.69000007042405 137.12248738567337 148.26083052552337 H 0.0 **** 0.06
22575 H 108.01749690253291 137.48983821836197 147.7749415096455 H 0.0 **** 0.06
22576 C 149.27695115359919 6.5434145904091565 100.00824033175186 C 0.0 **** -0.24
22577 H 149.834502487833 5.665893766841293 99.68193288761827 H 0.0 **** 0.06
22578 H 149.16345627031276 7.23465512947206 99.17247881228724 H 0.0 **** 0.06
22579 H 149.81653868702472 7.036644495123369 100.81730611301427 H 0.0 **** 0.06
22580 H 148.29206668137496 6.237257677003129 100.36215614564239 H 0.0 **** 0.06
22581 C 38.282637503983324 80.86644725029674 25.522435765431418 C 0.0 **** -0.24
22582 H 38.040130948504896 79.8433689007668 25.235468677535692 H 0.0 **** 0.06
22583 H 38.16999702307052 81.52198108722222 24.658627695928182 H 0.0 **** 0.06
22584 H 39.31267392632438 80.90864920972676 25.87872899779326 H 0.0 **** 0.06
22585 H 37.61003996528788 81.19186640918002 26.31605644206686 H 0.0 **** 0.06
22586 C 122.68187152229555 97.90394761490873 94.67862136785945 C 0.0 **** -0.24
22587 H 122.87949045938711 98.53565754123417 93.81267380779609 H 0.0 **** 0.06
22588 H 122.28229986785266 96.94608393402774 94.34620520639437 H 0.0 **** 0.06
22589 H 121.9566793599304 98.3948479028287 95.32787871323147 H 0.0 **** 0.06
22590 H 123.60911469659641 97.7406116576789 95.22775369595402 H 0.0 **** 0.06
22591 C 129.28442151602212 99.89070460762534 87.64817011933239 C 0.0 **** -0.24
22592 H 129.68184775131726 99.31757312497601 88.48442754150014 H 0.0 **** 0.06
22593 H 129.24660721794032 100.94741231544543 87.91596071928548 H 0.0 **** 0.06
22594 H 128.2795607395438 99.53936266585924 87.41119637985229 H 0.0 **** 0.06
22595 H 129.92936381642525 99.7593799853259 86.77907625715628 H 0.0 **** 0.06
22596 C 23.884050228696367 15.246197039185219 98.85521045115826 C 0.0 **** -0.24
22597 H 24.955635616086212 15.402711747864771 98.97914495364327 H 0.0 **** 0.06
22598 H 23.40285592936388 16.19537767794985 98.61836022018926 H 0.0 **** 0.06
22599 H 23.465983865745223 14.846911557692877 99.77851995197327 H 0.0 **** 0.06
22600 H 23.71236779270636 14.539265317490305 98.04329509353065 H 0.0 **** 0.06
22601 C 121.98393625420408 160.4488391481773 159.62041371873795 C 0.0 **** -0.24
22602 H 122.36405249804022 160.69013754308298 160.61249463608104 H 0.0 **** 0.06
22603 H 121.65127781118429 159.41012715793977 159.60273119359107 H 0.0 **** 0.06
22604 H 122.77390569523811 160.5903964425533 158.8833420476661 H 0.0 **** 0.06
22605 H 121.1445905453516 161.10276954922674 159.38470276235884 H 0.0 **** 0.06
22606 C 145.03364196445173 36.80758276103427 2.895278240431651 C 0.0 **** -0.24
22607 H 144.35899263783693 36.671114487128875 3.7406287955242874 H 0.0 **** 0.06
22608 H 145.7018950622459 35.948948159540066 2.8217030522502 H 0.0 **** 0.06
22609 H 145.62175222051826 37.71325483892559 3.042964613037327 H 0.0 **** 0.06
22610 H 144.45298169374956 36.896695327936754 1.9771538179930417 H 0.0 **** 0.06
22611 C 106.72415064087969 17.95887046102996 130.70397030703523 C 0.0 **** -0.24
22612 H 106.8573564510991 19.031271716580534 130.56139185295567 H 0.0 **** 0.06
22613 H 107.33321190804543 17.6257984793977 131.54448044455435 H 0.0 **** 0.06
22614 H 107.03114768273022 17.43204130585724 129.80078666214285 H 0.0 **** 0.06
22615 H 105.67407409090478 17.746953382267122 130.9092293995919 H 0.0 **** 0.06
22616 C 76.78217936572872 55.01819672127408 141.33386638929517 C 0.0 **** -0.24
22617 H 77.14639861201101 56.02830396822122 141.52091596003817 H 0.0 **** 0.06
22618 H 77.48082374707792 54.295306480157876 141.75555655461534 H 0.0 **** 0.06
22619 H 76.69478164072507 54.856609859058096 140.26014056988046 H 0.0 **** 0.06
22620 H 75.80385688633504 54.89279027277297 141.80052288027898 H 0.0 **** 0.06
22621 C 77.7724993121352 30.151756358718842 3.6467548040417697 C 0.0 **** -0.24
22622 H 77.80066641450185 29.642187008065456 2.6839450992450296 H 0.0 **** 0.06
22623 H 77.27619928265824 29.51516161082573 4.380044855233123 H 0.0 **** 0.06
22624 H 77.22360255455891 31.087834595048733 3.5464466513429898 H 0.0 **** 0.06
22625 H 78.79008376151921 30.36121573701685 3.9760350848119757 H 0.0 **** 0.06
22626 C 97.42005015344176 145.51409083885054 119.0572428496223 C 0.0 **** -0.24
22627 H 98.3747061685167 146.04017397085863 119.030460214567 H 0.0 **** 0.06
22628 H 97.54753960189407 144.55675694487599 119.56239441735838 H 0.0 **** 0.06
22629 H 97.07095038200487 145.34482418917446 118.0384631792283 H 0.0 **** 0.06
22630 H 96.68850450393847 146.11634591229074 119.59679884480397 H 0.0 **** 0.06
22631 C 146.2010545838378 119.34200784893793 151.89204766520422 C 0.0 **** -0.24
22632 H 145.76632251947476 118.36773827306453 151.66727511311873 H 0.0 **** 0.06
22633 H 145.8566690955854 120.07108196381176 151.15861571503763 H 0.0 **** 0.06
22634 H 147.28803899213182 119.27271834704686 151.85329577513548 H 0.0 **** 0.06
22635 H 145.89186519807163 119.65599450309543 152.88895245389332 H 0.0 **** 0.06
22636 C 1.2851297673977626 128.72099057527072 22.78959275439388 C 0.0 **** -0.24
22637 H 2.1776296949234464 128.7205297251719 22.16422205705618 H 0.0 **** 0.06
22638 H 1.5164818049594686 129.17840234195685 23.75214955864476 H 0.0 **** 0.06
22639 H 0.9504077260522195 127.6958367725249 22.946387765199745 H 0.0 **** 0.06
22640 H 0.4966102599218587 129.28945627458484 22.296859988223048 H 0.0 **** 0.06
22641 C 89.62522896506853 31.843964996551676 50.445063190288565 C 0.0 **** -0.24
22642 H 89.63824452316923 31.873781108234482 51.53491569077299 H 0.0 **** 0.06
22643 H 88.62503351283809 31.581988363408982 50.1018050962727 H 0.0 **** 0.06
22644 H 90.33867666608836 31.09739454104917 50.09421018665972 H 0.0 **** 0.06
22645 H 89.90029997645888 32.82285246486799 50.05200196425055 H 0.0 **** 0.06
22646 C 32.08718670089439 64.84269577885453 105.31909995711675 C 0.0 **** -0.24
22647 H 31.99379029170393 63.76597631523589 105.46113223128327 H 0.0 **** 0.06
22648 H 33.142806076134946 65.11214312914188 105.27207073805334 H 0.0 **** 0.06
22649 H 31.616612617553614 65.36047411936323 106.1539606823593 H 0.0 **** 0.06
22650 H 31.595286365701156 65.13082369472113 104.38950313516708 H 0.0 **** 0.06
22651 C 55.90959523807784 126.84378233431073 90.87691819427411 C 0.0 **** -0.24
22652 H 55.73209164040783 127.16257937244313 91.90403784531404 H 0.0 **** 0.06
22653 H 56.64072830651914 127.50691708813804 90.41251896217685 H 0.0 **** 0.06
22654 H 54.974233256983425 126.88566953086297 90.31819795586641 H 0.0 **** 0.06
22655 H 56.28962501009627 125.82313615850146 90.87310330853268 H 0.0 **** 0.06
22656 C 63.88008167280702 75.970275694057 6.909020975474363 C 0.0 **** -0.24
22657 H 64.22431867631803 76.99143655059684 6.746437968027436 H 0.0 **** 0.06
22658 H 62.8589971888307 75.86880617104913 6.541406684658739 H 0.0 **** 0.06
22659 H 63.90627511281622 75.74357868125493 7.975445966436155 H 0.0 **** 0.06
22660 H 64.52998145667533 75.27857308134938 6.37473306845007 H 0.0 **** 0.06
22661 C 143.02461624540746 67.7490702858002 150.625883743191 C 0.0 **** -0.24
22662 H 143.87643500041872 67.18808548601147 151.00850977035475 H 0.0 **** 0.06
22663 H 143.32982122542842 68.77485199490778 150.41520457600035 H 0.0 **** 0.06
22664 H 142.22797607527514 67.75279553843028 151.3700043151817 H 0.0 **** 0.06
22665 H 142.6641832463867 67.28292921404902 149.70924347022094 H 0.0 **** 0.06
22666 C 59.5902821672465 61.776880033641746 67.66782654630597 C 0.0 **** -0.24
22667 H 58.63230043274626 61.75151161254172 68.18756042759873 H 0.0 **** 0.06
22668 H 60.32418968682724 62.295544601088295 68.28557302305978 H 0.0 **** 0.06
22669 H 59.47591745737164 62.301026518641876 66.71937095461257 H 0.0 **** 0.06
22670 H 59.92760052666797 60.75691934209446 67.48090036715195 H 0.0 **** 0.06
22671 C 22.315295343848035 136.14262074558616 43.6166648791927 C 0.0 **** -0.24
22672 H 22.606473147075505 135.11158253566668 43.816408567512795 H 0.0 **** 0.06
22673 H 21.284302873957344 136.2979698678667 43.93676029704925 H 0.0 **** 0.06
22674 H 22.398254482738544 136.34289661482546 42.547601145201384 H 0.0 **** 0.06
22675 H 22.971236651170308 136.8183602244344 44.16486100545265 H 0.0 **** 0.06
22676 C 114.72126009011018 64.2690192429804 22.199497829450223 C 0.0 **** -0.24
22677 H 113.74205210916497 63.990482243440155 21.808710473786974 H 0.0 **** 0.06
22678 H 114.61922654637047 65.1394085836617 22.848260830104998 H 0.0 **** 0.06
22679 H 115.38687561624198 64.5102291791584 21.370778582092512 H 0.0 **** 0.06
22680 H 115.13551189999416 63.437459766368335 22.768880044062193 H 0.0 **** 0.06
22681 C 135.2182359493865 89.4650229197923 133.17346890356478 C 0.0 **** -0.24
22682 H 134.74424213808385 90.44160439412592 133.26502930101807 H 0.0 **** 0.06
22683 H 135.2232098911668 89.16005938248237 132.12708209544115 H 0.0 **** 0.06
22684 H 134.6635854914798 88.73461535070125 133.76325067235976 H 0.0 **** 0.06
22685 H 136.24337380629333 89.52344613243251 133.54044027196886 H 0.0 **** 0.06
22686 C 97.04714934807089 51.25752105874584 113.08067865419548 C 0.0 **** -0.24
22687 H 96.69505060172017 52.15580624682117 113.58723075514817 H 0.0 **** 0.06
22688 H 97.09469712165136 50.43411376368893 113.79306371933924 H 0.0 **** 0.06
22689 H 98.0392154045415 51.43883486135337 112.66846988815598 H 0.0 **** 0.06
22690 H 96.35948132253372 51.00230452378834 112.27411056834583 H 0.0 **** 0.06
22691 C 55.550404075224264 40.480969695045516 48.474439664043345 C 0.0 **** -0.24
22692 H 55.08899646600082 40.07129817945723 49.373446976981086 H 0.0 **** 0.06
22693 H 56.01929689141082 39.675926102501094 47.90849249207682 H 0.0 **** 0.06
22694 H 56.30482283935433 41.214831220357624 48.75583868535314 H 0.0 **** 0.06
22695 H 54.78707515069709 40.95979115670188 47.86166580971779 H 0.0 **** 0.06
22696 C 157.37527351205767 66.8455339271894 150.98236713665722 C 0.0 **** -0.24
22697 H 156.4108047124426 66.70810767901267 151.4725496076785 H 0.0 **** 0.06
22698 H 157.30175891164927 66.53041728159525 149.94098392588 H 0.0 **** 0.06
22699 H 158.1296643258194 66.24507291189906 151.49125999482283 H 0.0 **** 0.06
22700 H 157.658243192764 67.89731483791792 151.02501608144888 H 0.0 **** 0.06
22701 C 82.69237170664807 13.687694320659368 51.25721146332718 C 0.0 **** -0.24
22702 H 81.7944860586174 14.296315875027041 51.36502160544032 H 0.0 **** 0.06
22703 H 83.55655620988165 14.33747549542209 51.11714204578237 H 0.0 **** 0.06
22704 H 82.58525266346561 13.033109780166754 50.392095023601485 H 0.0 **** 0.06
22705 H 82.83165674530987 13.08548316030938 52.154834013559594 H 0.0 **** 0.06
22706 C 50.77387529700667 71.86803157235289 5.080442327634785 C 0.0 **** -0.24
22707 H 49.98934284571814 71.48761908593626 5.733903881394099 H 0.0 **** 0.06
22708 H 50.37654004177159 72.67989914469807 4.471399972096833 H 0.0 **** 0.06
22709 H 51.12829956977737 71.06577390829851 4.432902410322015 H 0.0 **** 0.06
22710 H 51.60208524432613 72.2389261087401 5.685661653771774 H 0.0 **** 0.06
22711 C 96.34774079550266 77.17609414232376 123.82796103884999 C 0.0 **** -0.24
22712 H 95.96159243243292 77.90183389438934 124.54382493299369 H 0.0 **** 0.06
22713 H 95.6319463553067 76.36172585244668 123.7134862353956 H 0.0 **** 0.06
22714 H 97.2965835285224 76.77923354004855 124.19020959179602 H 0.0 **** 0.06
22715 H 96.50128463381458 77.66279913332448 122.86489333978972 H 0.0 **** 0.06
22716 C 113.75065440536602 5.480923715713914 107.05633592302763 C 0.0 **** -0.24
22717 H 113.0398018757993 4.740975377646407 107.42287918997431 H 0.0 **** 0.06
22718 H 113.7169315324615 5.507834942351565 105.96724758602758 H 0.0 **** 0.06
22719 H 114.75524045330025 5.212861444419843 107.38299681220929 H 0.0 **** 0.06
22720 H 113.489761127247 6.462850187290144 107.45295286851683 H 0.0 **** 0.06
22721 C 8.435963920931385 41.50658683816461 14.904825987179436 C 0.0 **** -0.24
22722 H 8.416461856654905 41.850864299639966 13.87072514101493 H 0.0 **** 0.06
22723 H 7.820371109182702 40.61231453349893 15.00204425678129 H 0.0 **** 0.06
22724 H 8.046139961047572 42.289122312912156 15.555969115299604 H 0.0 **** 0.06
22725 H 9.461948777771113 41.27434969468665 15.189687053745246 H 0.0 **** 0.06
22726 C 81.06328514200783 161.1135184766364 90.19762714328226 C 0.0 **** -0.24
22727 H 81.03260506529928 161.8191723396699 91.02751460510257 H 0.0 **** 0.06
22728 H 80.30574628682326 161.38436422565877 89.46214952943635 H 0.0 **** 0.06
22729 H 80.86854686621768 160.10727238002195 90.56821943079315 H 0.0 **** 0.06
22730 H 82.04918728002086 161.14469108585533 89.7314875035257 H 0.0 **** 0.06
22731 C 54.57526272716622 121.98285157296817 13.817418358034523 C 0.0 **** -0.24
22732 H 53.508298958934205 121.79701929323747 13.934090935746674 H 0.0 **** 0.06
22733 H 54.80409922125149 122.13537376589147 12.762482005379304 H 0.0 **** 0.06
22734 H 55.13609651535009 121.12469826248568 14.190015009362604 H 0.0 **** 0.06
22735 H 54.853844266369066 122.87228970369745 14.382596201269287 H 0.0 **** 0.06
22736 C 129.7944298408099 6.999236003277964 155.4622970542271 C 0.0 **** -0.24
22737 H 129.46200716454604 7.895495648421125 155.98647229409556 H 0.0 **** 0.06
22738 H 129.3677294170562 6.118338208390867 155.94166400295524 H 0.0 **** 0.06
22739 H 130.88149546505474 6.940692763835578 155.49602861985977 H 0.0 **** 0.06
22740 H 129.46509506036182 7.043061225094156 154.42339626187254 H 0.0 **** 0.06
22741 C 38.24220013185362 86.42688348005106 114.74016868336912 C 0.0 **** -0.24
22742 H 37.44204741635792 86.52684702513164 115.47269290755452 H 0.0 **** 0.06
22743 H 38.843287967748466 87.33624121829638 114.73152115781238 H 0.0 **** 0.06
22744 H 37.81141458357848 86.26638757009715 113.75200284643691 H 0.0 **** 0.06
22745 H 38.87290647707687 85.57705313200452 115.00395038521515 H 0.0 **** 0.06
22746 C 131.82513823658297 158.5039155296044 28.951774054362346 C 0.0 **** -0.24
22747 H 131.34539510962654 158.01524819485962 28.103253784032916 H 0.0 **** 0.06
22748 H 131.8317905686518 157.8260456214316 29.805751812820432 H 0.0 **** 0.06
22749 H 131.27383497221712 159.4086922737011 29.20964541506561 H 0.0 **** 0.06
22750 H 132.8498284454183 158.76634915228135 28.687767540510208 H 0.0 **** 0.06
22751 C 38.37195593311215 1.367321388185161 79.40655970613798 C 0.0 **** -0.24
22752 H 39.4560806042835 1.276041071300142 79.33923616128763 H 0.0 **** 0.06
22753 H 38.11627727909496 2.165830448345673 80.1023531617642 H 0.0 **** 0.06
22754 H 37.95101372498546 0.4269216868861463 79.76240927724227 H 0.0 **** 0.06
22755 H 37.965494307032515 1.597421687102127 78.42154363303194 H 0.0 **** 0.06
22756 C 153.77874338943917 122.19729848409332 71.28583238879716 C 0.0 **** -0.24
22757 H 154.32920681558892 121.65266760710054 70.51852274523789 H 0.0 **** 0.06
22758 H 153.56811032516984 123.20707290262479 70.93272304345003 H 0.0 **** 0.06
22759 H 154.37801545710772 122.24714055067557 72.19502302741162 H 0.0 **** 0.06
22760 H 152.8413904953901 121.68194287889693 71.49538669943051 H 0.0 **** 0.06
22761 C 7.550950302200931 109.94469514191735 66.53258191047502 C 0.0 **** -0.24
22762 H 6.482263705905837 109.89932319174284 66.74090901930984 H 0.0 **** 0.06
22763 H 7.751488521270701 109.48344265892604 65.5652409963626 H 0.0 **** 0.06
22764 H 8.09574644008061 109.40991059580733 67.31029233156804 H 0.0 **** 0.06
22765 H 7.87339942731726 110.98596257336021 66.51429073155973 H 0.0 **** 0.06
22766 C 137.20013998772328 7.799866940159575 39.22837002114406 C 0.0 **** -0.24
22767 H 136.40679226234963 7.520280911304411 38.53579160044687 H 0.0 **** 0.06
22768 H 136.92784562091464 7.489588838155328 40.23731062467277 H 0.0 **** 0.06
22769 H 137.33847018403287 8.880701979684318 39.204743259495174 H 0.0 **** 0.06
22770 H 138.1283769900251 7.30849503690618 38.93464291362234 H 0.0 **** 0.06
22771 C 160.12332148978373 42.27750327569916 137.37901765868475 C 0.0 **** -0.24
22772 H 161.1071156886557 42.49763221001534 137.79168827462573 H 0.0 **** 0.06
22773 H 160.1265593359998 42.47359959680652 136.30610915829098 H 0.0 **** 0.06
22774 H 159.37760327627083 42.90946806139496 137.86092397708364 H 0.0 **** 0.06
22775 H 159.88113354336272 41.22945046205702 137.55688326118232 H 0.0 **** 0.06
22776 C 67.05843161365647 18.7654385621276 82.88038426380122 C 0.0 **** -0.24
22777 H 67.63575814737254 18.696771179486234 83.80277015999913 H 0.0 **** 0.06
22778 H 66.24613859550617 19.479808248312203 83.01338746652281 H 0.0 **** 0.06
22779 H 66.64630007897425 17.786212292721764 82.63600673202396 H 0.0 **** 0.06
22780 H 67.7073374713418 19.098613371335453 82.07015367685025 H 0.0 **** 0.06
22781 C 133.32200941713128 88.72690145439459 65.62459268298922 C 0.0 **** -0.24
22782 H 132.30960544352658 88.32493353020752 65.65646463890626 H 0.0 **** 0.06
22783 H 133.95815743343925 88.06170974525435 65.03953662740972 H 0.0 **** 0.06
22784 H 133.71335125897636 88.8071912899387 66.6377096049777 H 0.0 **** 0.06
22785 H 133.3055383145995 89.71344826405975 65.16201843653327 H 0.0 **** 0.06
22786 C 131.7677809091931 152.4534010556652 31.97332799163678 C 0.0 **** -0.24
22787 H 132.65716502490474 153.0466145188304 32.18703000850269 H 0.0 **** 0.06
22788 H 131.02154606020136 153.08198213934702 31.486962655430375 H 0.0 **** 0.06
22789 H 131.36145290868544 152.05980492983366 32.9039473769908 H 0.0 **** 0.06
22790 H 132.03262206635893 151.62708353036774 31.313204228275822 H 0.0 **** 0.06
22791 C 89.35881832552744 75.81845949943762 110.86624671753827 C 0.0 **** -0.24
22792 H 88.67925059423865 75.48983449721354 111.6530816347663 H 0.0 **** 0.06
22793 H 89.47920899780615 76.90079040736155 110.91878970542541 H 0.0 **** 0.06
22794 H 88.9470288274857 75.5441108190151 109.89417927307846 H 0.0 **** 0.06
22795 H 90.32729607476557 75.33746169905588 110.99859770022078 H 0.0 **** 0.06
22796 C 31.729201046100158 88.30849861593279 123.8762748779929 C 0.0 **** -0.24
22797 H 30.705095014422007 87.98129048024174 124.0523330788283 H 0.0 **** 0.06
22798 H 32.14879060822041 88.70232109460017 124.80204931802317 H 0.0 **** 0.06
22799 H 31.735368253774524 89.08726342176249 123.11403332754153 H 0.0 **** 0.06
22800 H 32.32755030798354 87.46311946712666 123.53668378757865 H 0.0 **** 0.06
22801 C 68.01527655553878 66.63646615741148 94.29422260833856 C 0.0 **** -0.24
22802 H 68.27130492107065 67.69313392172154 94.21534565125943 H 0.0 **** 0.06
22803 H 68.43960080503838 66.09676645301037 93.44782435418475 H 0.0 **** 0.06
22804 H 66.93068509448166 66.52554815807108 94.29016888138834 H 0.0 **** 0.06
22805 H 68.41864190311088 66.23335921658555 95.22279302926266 H 0.0 **** 0.06
22806 C 79.68693123014657 64.67624572162542 132.2414166534611 C 0.0 **** -0.24
22807 H 79.98477907484434 65.72191469751498 132.32741056793478 H 0.0 **** 0.06
22808 H 79.85586764402899 64.17143781250638 133.19242207363274 H 0.0 **** 0.06
22809 H 80.27879295050491 64.19355811583362 131.46364982573144 H 0.0 **** 0.06
22810 H 78.62980997111077 64.619700175096 131.98234312661995 H 0.0 **** 0.06
22811 C 66.28440680974397 162.05331468850738 149.76573701671737 C 0.0 **** -0.24
22812 H 65.40877024455976 161.998610795044 149.11930532606408 H 0.0 **** 0.06
22813 H 67.15793447665317 162.31947073782396 149.17132369103834 H 0.0 **** 0.06
22814 H 66.44676494555836 161.08366364206293 150.23793674526823 H 0.0 **** 0.06
22815 H 66.12252612632875 162.80910834529269 150.5336383244503 H 0.0 **** 0.06
22816 C 43.48931187505332 79.01371015187922 104.32080070658625 C 0.0 **** -0.24
22817 H 42.60518935953911 78.66556269751777 103.78688631390523 H 0.0 **** 0.06
22818 H 43.54269051768222 80.10118758505143 104.26474338102093 H 0.0 **** 0.06
22819 H 44.38131554658122 78.58321554304356 103.86556483180698 H 0.0 **** 0.06
22820 H 43.42878982394822 78.70505476767718 105.36390509144533 H 0.0 **** 0.06
22821 C 9.635710701380617 80.53549420870239 55.83272994037276 C 0.0 **** -0.24
22822 H 10.172205901591894 81.22381401639856 56.484841557297585 H 0.0 **** 0.06
22823 H 8.744829981148769 80.1707896207681 56.34333834271331 H 0.0 **** 0.06
22824 H 10.282048130384396 79.69497093005523 55.58183878083696 H 0.0 **** 0.06
22825 H 9.345065020528352 81.05425223209416 54.91893342441955 H 0.0 **** 0.06
22826 C 88.98654057044712 55.9240837383841 23.298794943267637 C 0.0 **** -0.24
22827 H 88.39506889981243 55.569734947585076 22.453774177700524 H 0.0 **** 0.06
22828 H 89.63077033892978 55.12011571177679 23.654105032639904 H 0.0 **** 0.06
22829 H 88.31922237158014 56.23830756917326 24.10163781504562 H 0.0 **** 0.06
22830 H 89.59853892443394 56.76915007938082 22.983115110363798 H 0.0 **** 0.06
22831 C 10.698716285505554 58.22291655327243 158.13204915485773 C 0.0 **** -0.24
22832 H 10.423248811421729 59.27758192146875 158.1341683259657 H 0.0 **** 0.06
22833 H 11.612297598943599 58.08658527718214 157.5529741716609 H 0.0 **** 0.06
22834 H 9.89350579224228 57.639062850489864 157.6856773556754 H 0.0 **** 0.06
22835 H 10.864078229952042 57.88925419415882 159.15652644458683 H 0.0 **** 0.06
22836 C 117.56753118802834 2.5066131974381562 72.4184878687272 C 0.0 **** -0.24
22837 H 118.01232578370744 1.6015071924456379 72.83200781014655 H 0.0 **** 0.06
22838 H 118.3330609275954 3.2783741290141393 72.3283979776213 H 0.0 **** 0.06
22839 H 116.77540323452848 2.85581891526283 73.08092392735814 H 0.0 **** 0.06
22840 H 117.15151911397948 2.2902611859022386 71.4346186648505 H 0.0 **** 0.06
22841 C 106.14326317548031 109.66860963078128 76.16634404595695 C 0.0 **** -0.24
22842 H 106.07840395241121 110.74705682922374 76.01967503995326 H 0.0 **** 0.06
22843 H 106.01383443243131 109.43806644622825 77.2240107752622 H 0.0 **** 0.06
22844 H 107.11932471714886 109.31489967456477 75.83452785614398 H 0.0 **** 0.06
22845 H 105.36180916287483 109.17570355910397 75.58827564414939 H 0.0 **** 0.06
22846 C 74.57545622174418 101.11715837148031 122.76194673047576 C 0.0 **** -0.24
22847 H 73.74153173904391 101.29143375036978 123.44248690604547 H 0.0 **** 0.06
22848 H 75.02868903289628 100.15055517856607 122.98318000072777 H 0.0 **** 0.06
22849 H 75.31771484348143 101.90501955935704 122.88761583486368 H 0.0 **** 0.06
22850 H 74.21146230946323 101.12164025503884 121.73417281446041 H 0.0 **** 0.06
22851 C 42.04811127664206 52.38700579013336 93.91413164162668 C 0.0 **** -0.24
22852 H 43.1184493414475 52.357725708700116 93.70862743680777 H 0.0 **** 0.06
22853 H 41.60433400183496 51.42310988764646 93.66415706676435 H 0.0 **** 0.06
22854 H 41.58371039221703 53.168276040446784 93.31283183648708 H 0.0 **** 0.06
22855 H 41.88804435600045 52.59815449347245 94.97112579580829 H 0.0 **** 0.06
22856 C 145.68808027079058 154.21853087734212 48.865157798259574 C 0.0 **** -0.24
22857 H 146.64287422740858 153.72962234226878 49.06081777400237 H 0.0 **** 0.06
22858 H 144.88971391662957 153.47718107966438 48.888254993324594 H 0.0 **** 0.06
22859 H 145.71776164946465 154.6908826618179 47.883200738386535 H 0.0 **** 0.06
22860 H 145.50547342813178 154.97628714733435 49.62751339181918 H 0.0 **** 0.06
22861 C 72.09492895605743 123.64551854620538 36.45162946884372 C 0.0 **** -0.24
22862 H 71.82453396643476 123.1389222992072 35.525148681910906 H 0.0 **** 0.06
22863 H 71.40923584708503 123.34308109907107 37.24406208539541 H 0.0 **** 0.06
22864 H 72.03240695841687 124.72452846824706 36.307958089291006 H 0.0 **** 0.06
22865 H 73.11347344671904 123.37455719059105 36.72919011788582 H 0.0 **** 0.06
22866 C 44.19477977785458 34.529285794889404 108.83838469714158 C 0.0 **** -0.24
22867 H 44.59033132100227 35.022545072591356 109.7269915598115 H 0.0 **** 0.06
22868 H 44.145748936653064 33.454000800154944 109.01128069384447 H 0.0 **** 0.06
22869 H 44.848387264365414 34.73285523896175 107.98969004310885 H 0.0 **** 0.06
22870 H 43.19562389572005 34.909675342035314 108.62672420797708 H 0.0 **** 0.06
22871 C 54.38748330266921 116.7590921113597 128.3490605431554 C 0.0 **** -0.24
22872 H 54.95539866249868 115.82966546589608 128.39116887565024 H 0.0 **** 0.06
22873 H 53.60512887174178 116.67309477855545 127.59479012215948 H 0.0 **** 0.06
22874 H 55.05565912889773 117.58064393858899 128.0887539000805 H 0.0 **** 0.06
22875 H 53.935437292746144 116.95314202687481 129.3211978068221 H 0.0 **** 0.06
22876 C 46.68266811859003 161.5046272746083 48.09219546334583 C 0.0 **** -0.24
22877 H 45.77641958359692 162.0753645071871 48.2951029866078 H 0.0 **** 0.06
22878 H 46.700000673204755 161.2145469070748 47.04133922281818 H 0.0 **** 0.06
22879 H 46.69718730499993 160.61155013551456 48.71608266508147 H 0.0 **** 0.06
22880 H 47.55538182673703 162.1187037519618 48.314406442642834 H 0.0 **** 0.06
22881 C 96.7134748126008 71.59426271593911 48.646409337460796 C 0.0 **** -0.24
22882 H 97.60898759629282 71.33039138851404 49.20859668909715 H 0.0 **** 0.06
22883 H 95.92225191250922 70.87746852096173 48.86471701420433 H 0.0 **** 0.06
22884 H 96.93672072052794 71.57670779046076 47.579493241510434 H 0.0 **** 0.06
22885 H 96.3863469041671 72.59486894645254 48.9324537703386 H 0.0 **** 0.06
22886 C 28.691951981459567 112.06068541947917 74.35480352285616 C 0.0 **** -0.24
22887 H 29.290219500434432 112.72800399302162 74.97455728834238 H 0.0 **** 0.06
22888 H 28.365018635183247 112.5909580684415 73.46081116469072 H 0.0 **** 0.06
22889 H 27.821240474138676 111.72490108510817 74.91862195834771 H 0.0 **** 0.06
22890 H 29.29280218369641 111.19748088659202 74.06616037691774 H 0.0 **** 0.06
22891 C 156.7925950009296 118.38975357370387 134.12237034594588 C 0.0 **** -0.24
22892 H 156.7095527403567 117.32909982159867 133.88373363675484 H 0.0 **** 0.06
22893 H 157.5010768229592 118.86051900251283 133.44054684584273 H 0.0 **** 0.06
22894 H 157.14269250477355 118.50455255587556 135.14808462360563 H 0.0 **** 0.06
22895 H 155.8169274278822 118.86349762098854 134.01670008943478 H 0.0 **** 0.06
22896 C 126.00307127587135 80.27179319582297 73.8684324197107 C 0.0 **** -0.24
22897 H 125.9760517508976 80.06910571130464 74.93901244022356 H 0.0 **** 0.06
22898 H 125.26312339164818 81.03515536767196 73.62467387887001 H 0.0 **** 0.06
22899 H 125.77576464180939 79.35818096155995 73.3193520725315 H 0.0 **** 0.06
22900 H 126.99527102662586 80.62556113044866 73.59078026915245 H 0.0 **** 0.06
22901 C 10.230565209723068 134.20420757914445 22.818965312203204 C 0.0 **** -0.24
22902 H 11.097582267677353 134.239174022232 23.477870157109635 H 0.0 **** 0.06
22903 H 9.323050858038869 134.35715651889305 23.403640607486125 H 0.0 **** 0.06
22904 H 10.186696155650111 133.23267558153253 22.3272103680265 H 0.0 **** 0.06
22905 H 10.314961066996602 134.98860187128594 22.066512121535993 H 0.0 **** 0.06
22906 C 98.03643853800793 86.70937831579815 33.67982567207466 C 0.0 **** -0.24
22907 H 97.92542806019685 86.78406028611325 32.59807887532891 H 0.0 **** 0.06
22908 H 98.41705323064343 85.72152083157056 33.93892197700832 H 0.0 **** 0.06
22909 H 97.06857420873314 86.86329662469034 34.155601471544955 H 0.0 **** 0.06
22910 H 98.735827709077 87.47047054210616 34.02610196745327 H 0.0 **** 0.06
22911 C 153.23388752033767 2.8607005812189072 79.29126238766955 C 0.0 **** -0.24
22912 H 152.89286911743667 2.1338635831315855 78.55360440337437 H 0.0 **** 0.06
22913 H 152.41970151187374 3.545400158907512 79.52885129652961 H 0.0 **** 0.06
22914 H 154.07593945635247 3.4221108950569032 78.88680121027721 H 0.0 **** 0.06
22915 H 153.54665222235442 2.3394770550789303 80.19681480232823 H 0.0 **** 0.06
22916 C 118.72784822171758 147.45268236591198 59.79240340679081 C 0.0 **** -0.24
22917 H 119.13793088142467 148.3118617962866 59.2609781583443 H 0.0 **** 0.06
22918 H 119.06294035183606 147.47269620529548 60.82888955379579 H 0.0 **** 0.06
22919 H 119.07049281591046 146.53471594130667 59.315880424876696 H 0.0 **** 0.06
22920 H 117.63897730231022 147.4935596862705 59.76132243627609 H 0.0 **** 0.06
22921 C 106.10666754889945 18.69645252387494 19.44866297070888 C 0.0 **** -0.24
22922 H 105.7534945270188 18.96426334293659 20.444558066843513 H 0.0 **** 0.06
22923 H 105.83782324048664 17.661831687504844 19.23472996661883 H 0.0 **** 0.06
22924 H 107.1902099650182 18.806377192569897 19.406422581857072 H 0.0 **** 0.06
22925 H 105.645698157048 19.352390064735772 18.711732886453518 H 0.0 **** 0.06
22926 C 51.168402957446915 116.93642727975666 34.5108345508517 C 0.0 **** -0.24
22927 H 51.02461685250033 117.97497865930998 34.21339307278585 H 0.0 **** 0.06
22928 H 52.05333165235696 116.8589093481595 35.142747551795125 H 0.0 **** 0.06
22929 H 51.30015284921656 116.31874066053584 33.62240049836842 H 0.0 **** 0.06
22930 H 50.29459675071527 116.59470219373145 35.06552863901889 H 0.0 **** 0.06
22931 C 43.34015145894473 44.47714456150834 87.19197050037934 C 0.0 **** -0.24
22932 H 43.748216795407046 44.88204867005794 88.1175498711448 H 0.0 **** 0.06
22933 H 43.65651332277254 45.097767579728185 86.35324818953416 H 0.0 **** 0.06
22934 H 42.251305493473 44.46979811331397 87.24795593914791 H 0.0 **** 0.06
22935 H 43.70355660000996 43.459650098844065 87.0479025367114 H 0.0 **** 0.06
22936 C 11.469891417631516 87.42532854970756 155.8552537306557 C 0.0 **** -0.24
22937 H 11.634276902322085 88.44931690119678 155.5212925139767 H 0.0 **** 0.06
22938 H 11.132563639376315 86.81822541636821 155.0143585810319 H 0.0 **** 0.06
22939 H 10.710734467938039 87.41677875931323 156.63848137004715 H 0.0 **** 0.06
22940 H 12.400717597532264 87.01733274464542 156.24838714585178 H 0.0 **** 0.06
22941 C 153.74748175739103 97.91452380730149 161.46496205613585 C 0.0 **** -0.24
22942 H 154.18786530656712 97.01792366245482 161.02832447502004 H 0.0 **** 0.06
22943 H 154.0151135202705 97.97336881463119 162.51963562653907 H 0.0 **** 0.06
22944 H 152.66311657685634 97.87131414745213 161.3666314161057 H 0.0 **** 0.06
22945 H 154.12544883661246 98.79532699200905 160.94409110339382 H 0.0 **** 0.06
22946 C 113.26997201560567 157.01596442510208 25.084479130569378 C 0.0 **** -0.24
22947 H 113.44050442421843 155.93946703562966 25.09182217817252 H 0.0 **** 0.06
22948 H 113.26934875087744 157.37677519220074 24.056320566227697 H 0.0 **** 0.06
22949 H 114.06336159866748 157.5132945733568 25.643786376283828 H 0.0 **** 0.06
22950 H 112.307903586306 157.2336206195152 25.547400234476072 H 0.0 **** 0.06
22951 C 109.10025901214564 69.19208635173845 77.73750754837089 C 0.0 **** -0.24
22952 H 108.42213798616328 68.50051215842187 78.23822591980394 H 0.0 **** 0.06
22953 H 108.66082957383719 70.18999515505817 77.73011354739876 H 0.0 **** 0.06
22954 H 109.26695078522127 68.8593537026793 76.71355459096276 H 0.0 **** 0.06
22955 H 110.05062095421042 69.21733844399417 78.27067390750106 H 0.0 **** 0.06
22956 C 126.68536417785342 151.52634478763486 113.00592843278474 C 0.0 **** -0.24
22957 H 127.44353314706473 151.1417600042292 113.68798723465207 H 0.0 **** 0.06
22958 H 127.1308727473415 152.2788614242763 112.35554572116291 H 0.0 **** 0.06
22959 H 125.87527470605531 151.97557469500796 113.58073483893816 H 0.0 **** 0.06
22960 H 126.29325191855844 150.70933227593198 112.40139526902831 H 0.0 **** 0.06
22961 C 43.07026787336984 127.89735494577644 11.899923999557814 C 0.0 **** -0.24
22962 H 43.89329472551074 128.35963317889855 11.355263113769183 H 0.0 **** 0.06
22963 H 42.69995985324584 128.58959531462767 12.656521724820323 H 0.0 **** 0.06
22964 H 43.42122104432853 126.98499333799532 12.382442427405522 H 0.0 **** 0.06
22965 H 42.266257793668444 127.65287539211408 11.204767588374125 H 0.0 **** 0.06
22966 C 95.64692460993695 141.18407885886015 33.800039413238665 C 0.0 **** -0.24
22967 H 94.96910707890447 141.88258441606524 33.30861265413779 H 0.0 **** 0.06
22968 H 96.66454694744851 141.3550406136522 33.44679338470195 H 0.0 **** 0.06
22969 H 95.34714718729066 140.1626761421214 33.56631557492574 H 0.0 **** 0.06
22970 H 95.60561420853185 141.33710758413358 34.8780377846673 H 0.0 **** 0.06
22971 C 149.9785078359564 152.40402436409033 122.1110626572949 C 0.0 **** -0.24
22972 H 151.0045067649865 152.7694421375018 122.0861856437835 H 0.0 **** 0.06
22973 H 149.94674987188716 151.38289695330877 121.7312428386006 H 0.0 **** 0.06
22974 H 149.35067485660738 153.04382807015605 121.49011189124812 H 0.0 **** 0.06
22975 H 149.6110276989674 152.422068097695 123.13723985334764 H 0.0 **** 0.06
22976 C 66.4948451061605 137.62473265990647 26.14795839760461 C 0.0 **** -0.24
22977 H 66.54980003627435 137.30600451274677 25.107097611210236 H 0.0 **** 0.06
22978 H 66.33879616158978 138.7032881968682 26.190060367161436 H 0.0 **** 0.06
22979 H 67.42628835936313 137.37180580177449 26.654215564410492 H 0.0 **** 0.06
22980 H 65.66467752762979 137.11830013735295 26.639595179315222 H 0.0 **** 0.06
22981 C 131.30952600064762 136.97348939670414 26.883765912404165 C 0.0 **** -0.24
22982 H 131.8952834815725 136.8801706788377 25.96849016704914 H 0.0 **** 0.06
22983 H 131.77904024850915 136.39072806148224 27.676337963914754 H 0.0 **** 0.06
22984 H 130.30024990475968 136.6002843597183 26.706891234102592 H 0.0 **** 0.06
22985 H 131.26281547087686 138.0215025158886 27.180365804317105 H 0.0 **** 0.06
22986 C 23.838195411721443 10.44661674995723 11.252527840025607 C 0.0 **** -0.24
22987 H 23.523925515143958 10.544565301194723 12.291402882943316 H 0.0 **** 0.06
22988 H 22.96592573793138 10.507641857821511 10.601848653275738 H 0.0 **** 0.06
22989 H 24.331414489851745 9.48370061575298 11.11137053539997 H 0.0 **** 0.06
22990 H 24.533129285599955 11.249977244677893 11.005730926755632 H 0.0 **** 0.06
22991 C 85.27518328725503 102.76582764490689 147.76441760473477 C 0.0 **** -0.24
22992 H 85.6019341340118 103.79543852780313 147.62299577993215 H 0.0 **** 0.06
22993 H 86.00424247815947 102.08840518281724 147.31897806637318 H 0.0 **** 0.06
22994 H 84.30615222250636 102.62345837330113 147.286678528943 H 0.0 **** 0.06
22995 H 85.18826245529216 102.55622491304649 148.83145386400946 H 0.0 **** 0.06
22996 C 55.13047458250354 94.88445590846042 95.75409968765348 C 0.0 **** -0.24
22997 H 54.750606428760975 95.03890708212448 96.76351280698509 H 0.0 **** 0.06
22998 H 56.01939807773914 94.25519208922718 95.79293148083866 H 0.0 **** 0.06
22999 H 55.385061055532745 95.84735542013642 95.31067311018455 H 0.0 **** 0.06
23000 H 54.365318000755124 94.39720794602084 95.14923879172989 H 0.0 **** 0.06
23001 C 19.82116569212974 63.05127322782728 102.40052649231598 C 0.0 **** -0.24
23002 H 20.28695976408312 63.83850201529145 101.80633744455758 H 0.0 **** 0.06
23003 H 20.474786766356914 62.791346964132146 103.2338947904702 H 0.0 **** 0.06
23004 H 19.659855576090365 62.173103494701294 101.77571547545492 H 0.0 **** 0.06
23005 H 18.864558429955878 63.404883709258044 102.78567716498083 H 0.0 **** 0.06
23006 C 24.59165754150804 101.76457316602702 132.05355518663603 C 0.0 **** -0.24
23007 H 23.991983895544934 101.42459794546258 131.20925179225307 H 0.0 **** 0.06
23008 H 25.42354998296951 101.07827056569622 132.2083761478881 H 0.0 **** 0.06
23009 H 23.971735066386856 101.79397867361556 132.94993195658375 H 0.0 **** 0.06
23010 H 24.976754119643424 102.76279611924514 131.84604516704073 H 0.0 **** 0.06
23011 C 17.476989443432586 37.10680769508798 66.90671312859718 C 0.0 **** -0.24
23012 H 16.952345097328077 37.68627278149671 66.14682932808138 H 0.0 **** 0.06
23013 H 17.34459115767283 36.04284590450072 66.7077435602888 H 0.0 **** 0.06
23014 H 17.072985918121347 37.346373963395365 67.89001928255743 H 0.0 **** 0.06
23015 H 18.53890232035868 37.35175444925312 66.88019911045927 H 0.0 **** 0.06
23016 C 12.984925905938333 88.46958929411 2.426663097730909 C 0.0 **** -0.24
23017 H 13.688032722343038 88.55764783830853 1.5981026779480203 H 0.0 **** 0.06
23018 H 12.227215510357496 87.72555125828563 2.1817994607488913 H 0.0 **** 0.06
23019 H 12.505990700746366 89.43299146877985 2.5997646760196176 H 0.0 **** 0.06
23020 H 13.520043091286396 88.16306968922942 3.32534445425631 H 0.0 **** 0.06
23021 C 37.27512286753151 39.67614173974859 71.35978757976245 C 0.0 **** -0.24
23022 H 36.19086659044359 39.709237743959676 71.46927207120225 H 0.0 **** 0.06
23023 H 37.656676874622576 38.75281963648533 71.79621134562744 H 0.0 **** 0.06
23024 H 37.718030649401726 40.531121746377465 71.87027237913408 H 0.0 **** 0.06
23025 H 37.5342700513134 39.711376374525955 70.30064114202841 H 0.0 **** 0.06
23026 C 139.14766822316835 53.058423020441566 120.67875398390441 C 0.0 **** -0.24
23027 H 140.05354994542606 52.690811701351976 120.19719291202958 H 0.0 **** 0.06
23028 H 138.27397403812296 52.65199829149216 120.16793962680589 H 0.0 **** 0.06
23029 H 139.12583237692115 54.1472415393273 120.62750653954467 H 0.0 **** 0.06
23030 H 139.137316532203 52.74364054959511 121.7223768572373 H 0.0 **** 0.06
23031 C 76.23268038159642 132.69276355350647 72.21258616196243 C 0.0 **** -0.24
23032 H 75.17262848907501 132.67791175155742 72.46589282359423 H 0.0 **** 0.06
23033 H 76.58614374333605 131.67268375852484 72.0658016676336 H 0.0 **** 0.06
23034 H 76.79308604123442 133.15817453490772 73.02388080254696 H 0.0 **** 0.06
23035 H 76.37949884821013 133.26466859379371 71.29647546327223 H 0.0 **** 0.06
23036 C 95.8091087190189 41.21502116217823 17.96147010250104 C 0.0 **** -0.24
23037 H 96.74830082345753 41.76043651604064 18.0437931573596 H 0.0 **** 0.06
23038 H 95.4401286944527 41.2789781462335 16.9383552172946 H 0.0 **** 0.06
23039 H 95.07487916454264 41.65067043572816 18.640779748671775 H 0.0 **** 0.06
23040 H 95.97199805708763 40.169958802336154 18.22607093694853 H 0.0 **** 0.06
23041 C 39.622732600667405 67.66301982295192 76.70846138175422 C 0.0 **** -0.24
23042 H 39.76731736068602 66.92927540824428 77.50112412328009 H 0.0 **** 0.06
23043 H 38.822244713712976 68.34764423878511 76.98995281484821 H 0.0 **** 0.06
23044 H 39.35442294444593 67.15048671302475 75.78498069584587 H 0.0 **** 0.06
23045 H 40.54529279607719 68.22319935859389 76.55810044188664 H 0.0 **** 0.06
23046 C 35.875088865913554 149.66372754436037 63.875191026294104 C 0.0 **** -0.24
23047 H 36.146692512742405 150.34183997263165 64.68388122281452 H 0.0 **** 0.06
23048 H 34.80241254144924 149.47255465205515 63.906066341276045 H 0.0 **** 0.06
23049 H 36.41534791296522 148.72443059275332 63.99392711750605 H 0.0 **** 0.06
23050 H 36.137538904224485 150.11520626245866 62.918486371124075 H 0.0 **** 0.06
23051 C 50.32113938277419 101.99377049699757 2.921345696993427 C 0.0 **** -0.24
23052 H 50.99914677646801 101.24127748657222 3.3239051286257038 H 0.0 **** 0.06
23053 H 49.32192829758996 101.8380488587861 3.3304433538107645 H 0.0 **** 0.06
23054 H 50.286806514698625 101.9066820862922 1.8357460036062037 H 0.0 **** 0.06
23055 H 50.67657012308101 102.98629380907948 3.195800209044698 H 0.0 **** 0.06
23056 C 36.377046987167944 33.590797938993006 22.302836900801466 C 0.0 **** -0.24
23057 H 36.058401104905045 34.302113615529436 21.541466663397628 H 0.0 **** 0.06
23058 H 36.13089126357306 33.98106440423116 23.291050108017146 H 0.0 **** 0.06
23059 H 37.454208899896685 33.43884818258189 22.229909822249944 H 0.0 **** 0.06
23060 H 35.865248267483366 32.64093489958091 22.14971564701913 H 0.0 **** 0.06
23061 C 38.424955096422536 116.16817235487804 114.73162373527896 C 0.0 **** -0.24
23062 H 38.8320902179464 115.7149381799374 115.63501601281985 H 0.0 **** 0.06
23063 H 37.657576108139565 116.8937118222338 115.00367862213659 H 0.0 **** 0.06
23064 H 37.986415095241085 115.39379551330666 114.10195156547559 H 0.0 **** 0.06
23065 H 39.22355437545036 116.67156280989798 114.18632463417634 H 0.0 **** 0.06
23066 C 129.182417490366 108.77747583876467 4.0034437257728825 C 0.0 **** -0.24
23067 H 128.97039818719912 109.1099246574667 5.019085109691424 H 0.0 **** 0.06
23068 H 128.93787287790389 109.57417915129994 3.301390594211121 H 0.0 **** 0.06
23069 H 128.58179800338547 107.89647074346794 3.776712350731877 H 0.0 **** 0.06
23070 H 130.23953101924084 108.52735827268586 3.916921884806854 H 0.0 **** 0.06
23071 C 100.32376414328428 106.90661321277238 160.39292533274454 C 0.0 **** -0.24
23072 H 99.2937544249655 106.83972764085777 160.7439797051175 H 0.0 **** 0.06
23073 H 100.86102940186882 105.99870299192267 160.66845927256267 H 0.0 **** 0.06
23074 H 100.80832668932052 107.76975304729405 160.84948926667678 H 0.0 **** 0.06
23075 H 100.33049844309821 107.01755501700228 159.307930648245 H 0.0 **** 0.06
23076 C 123.64443112318168 101.4769614730929 67.33736848110236 C 0.0 **** -0.24
23077 H 124.11972994084886 102.45360396942192 67.42794065888388 H 0.0 **** 0.06
23078 H 122.93764070936936 101.49320881033259 66.50692448438912 H 0.0 **** 0.06
23079 H 123.11591300932326 101.24257718051558 68.260375201275 H 0.0 **** 0.06
23080 H 124.40587335368446 100.7187927325233 67.15161924971476 H 0.0 **** 0.06
23081 C 61.586179522107415 42.798716190558864 112.09649347773657 C 0.0 **** -0.24
23082 H 61.99040603540445 43.13643461912504 113.05104156994278 H 0.0 **** 0.06
23083 H 62.34206047120864 42.21954746976468 111.56639119472635 H 0.0 **** 0.06
23084 H 61.30342796600701 43.66415405195514 111.49587149258628 H 0.0 **** 0.06
23085 H 60.70853364767282 42.177659650378985 112.27323996866454 H 0.0 **** 0.06
23086 C 18.27710577315802 63.119963239218805 10.400476978734332 C 0.0 **** -0.24
23087 H 18.119315645419775 63.21272327585615 11.47529916239779 H 0.0 **** 0.06
23088 H 18.027022264904296 62.10774284121487 10.082760186798964 H 0.0 **** 0.06
23089 H 19.32133844575825 63.32659673311747 10.168471492412436 H 0.0 **** 0.06
23090 H 17.640528162839807 63.8324889571079 9.876741476063444 H 0.0 **** 0.06
23091 C 132.1647691965028 1.4539016965089502 152.5117896928715 C 0.0 **** -0.24
23092 H 132.29512490558955 0.3754114145366714 152.6023102072232 H 0.0 **** 0.06
23093 H 131.63982939450582 1.8302750319219854 153.39030844628076 H 0.0 **** 0.06
23094 H 131.58319357751864 1.6759324161427287 151.61671872792851 H 0.0 **** 0.06
23095 H 133.1411745472077 1.9327950131674356 152.43905294078752 H 0.0 **** 0.06
23096 C 59.63589159582763 145.89278127136805 60.67422948180905 C 0.0 **** -0.24
23097 H 59.42967616951216 145.05722013659005 61.34215358296363 H 0.0 **** 0.06
23098 H 60.56574803781719 145.70738386403912 60.136340402699645 H 0.0 **** 0.06
23099 H 59.729773196444384 146.8091372804654 61.25765710366123 H 0.0 **** 0.06
23100 H 58.817551011455805 145.99786240020626 59.961086062646345 H 0.0 **** 0.06
23101 C 36.23339012320798 125.84841083038538 134.34026599663386 C 0.0 **** -0.24
23102 H 36.34839200306544 126.29084649149723 133.35089392245976 H 0.0 **** 0.06
23103 H 35.173383760819775 125.70677516678853 134.55328650049051 H 0.0 **** 0.06
23104 H 36.66869066969514 126.51161227938118 135.08717235000915 H 0.0 **** 0.06
23105 H 36.74229799619201 124.8851411653838 134.3687997094407 H 0.0 **** 0.06
23106 C 116.59871809552641 80.5832827956026 150.88829329224959 C 0.0 **** -0.24
23107 H 115.96720245690983 79.96724583501651 151.52985106193032 H 0.0 **** 0.06
23108 H 116.94495836526215 81.45255887336862 151.4479535923245 H 0.0 **** 0.06
23109 H 116.02355180005813 80.91336940695052 150.02364804949124 H 0.0 **** 0.06
23110 H 117.45538713099648 79.9995522579857 150.55333413002657 H 0.0 **** 0.06
23111 C 137.97501887360843 130.3587190043638 143.9976393704843 C 0.0 **** -0.24
23112 H 138.61301681940617 129.53263442455795 143.68377197797793 H 0.0 **** 0.06
23113 H 137.54855196982226 130.84278472354032 143.11843276878705 H 0.0 **** 0.06
23114 H 138.56604299062886 131.08136054857107 144.56039646819528 H 0.0 **** 0.06
23115 H 137.17117804236517 129.97798801005632 144.62737715031227 H 0.0 **** 0.06
23116 C 18.227543926086895 67.13040421633589 131.6269503603499 C 0.0 **** -0.24
23117 H 17.312427927577772 67.70505713205083 131.77119530042447 H 0.0 **** 0.06
23118 H 17.978638737523866 66.13720747285086 131.25556344887534 H 0.0 **** 0.06
23119 H 18.755172769258742 67.04186004509289 132.5771243541493 H 0.0 **** 0.06
23120 H 18.865731606556324 67.63967784212726 130.90392494315253 H 0.0 **** 0.06
23121 C 80.83951946647421 123.11037083407496 28.40001493780062 C 0.0 **** -0.24
23122 H 80.0772435198485 122.71391444037855 29.070891656363983 H 0.0 **** 0.06
23123 H 80.8750447724624 122.50503573830471 27.49377421017516 H 0.0 **** 0.06
23124 H 81.80986955779272 123.08189032986198 28.89549390875527 H 0.0 **** 0.06
23125 H 80.59377448120625 124.14002129615918 28.139797356656118 H 0.0 **** 0.06
23126 C 76.50317556172216 24.812925710526862 48.08987367501908 C 0.0 **** -0.24
23127 H 77.20057019027699 25.537949680908582 48.509159760909796 H 0.0 **** 0.06
23128 H 76.03583053312667 25.232339225177327 47.19848497880072 H 0.0 **** 0.06
23129 H 75.73523118453485 24.578091498248185 48.826723167160594 H 0.0 **** 0.06
23130 H 77.0424474412604 23.903961855779883 47.82320457705703 H 0.0 **** 0.06
23131 C 49.5383929406016 43.542052694708275 79.03638474602329 C 0.0 **** -0.24
23132 H 50.61737047409824 43.56073145462682 78.88109643752817 H 0.0 **** 0.06
23133 H 49.06910134120082 42.946134488026985 78.25304078063904 H 0.0 **** 0.06
23134 H 49.14923116255558 44.55949300869719 79.00145386668464 H 0.0 **** 0.06
23135 H 49.31908274574239 43.101565926806245 80.00928110137741 H 0.0 **** 0.06
23136 C 63.922361302820605 144.14583279342258 63.742983744557336 C 0.0 **** -0.24
23137 H 63.73339293988988 145.15450661464865 64.10841758670315 H 0.0 **** 0.06
23138 H 64.53409147568698 144.19471105379847 62.84252389152971 H 0.0 **** 0.06
23139 H 62.97460505059888 143.65930937769156 63.5122676625829 H 0.0 **** 0.06
23140 H 64.44749815790135 143.57398323971296 64.5081727624351 H 0.0 **** 0.06
23141 C 150.64426765418662 36.95193627033757 130.73760042138633 C 0.0 **** -0.24
23142 H 149.9996272271583 36.724786938418276 129.8876575993213 H 0.0 **** 0.06
23143 H 151.29240648233173 37.791755729631205 130.4874400990231 H 0.0 **** 0.06
23144 H 151.2528551321715 36.07883360895505 130.9737992603798 H 0.0 **** 0.06
23145 H 150.02998833831208 37.21124205789437 131.59928670753834 H 0.0 **** 0.06
23146 C 39.910707423896966 92.39490328103102 41.93581231142531 C 0.0 **** -0.24
23147 H 39.102822159745486 91.9473388187406 41.35674554993176 H 0.0 **** 0.06
23148 H 39.790970307072826 92.13376837322863 42.987546810213956 H 0.0 **** 0.06
23149 H 39.87994220680024 93.47901230809813 41.82367847975843 H 0.0 **** 0.06
23150 H 40.86775672010202 92.01983359481403 41.574972745271566 H 0.0 **** 0.06
23151 C 62.631147560678755 29.641595517709277 141.30256244845646 C 0.0 **** -0.24
23152 H 63.2606815161306 28.803361596732202 141.00256949187758 H 0.0 **** 0.06
23153 H 63.22585340272656 30.55544577383185 141.31550666580134 H 0.0 **** 0.06
23154 H 62.22734991913342 29.455178434959123 142.29691497383598 H 0.0 **** 0.06
23155 H 61.812020704248084 29.75083133254492 140.59154093238067 H 0.0 **** 0.06
23156 C 81.7363664886104 118.30393469229224 21.44188014134494 C 0.0 **** -0.24
23157 H 82.36295449668893 118.81377131451222 22.173133803082663 H 0.0 **** 0.06
23158 H 81.25613205438928 119.04182927267956 20.798012623982032 H 0.0 **** 0.06
23159 H 80.97427321986284 117.72149003729709 21.95956530358282 H 0.0 **** 0.06
23160 H 82.3519008497285 117.63954450805414 20.83641589590235 H 0.0 **** 0.06
23161 C 138.88914012198418 89.87897338437294 52.06962677927504 C 0.0 **** -0.24
23162 H 138.34491839811818 90.72590798397705 52.4883025191658 H 0.0 **** 0.06
23163 H 139.94769095930272 90.12990635693404 51.99151999889634 H 0.0 **** 0.06
23164 H 138.49648551135425 89.64813641957268 51.0797573513821 H 0.0 **** 0.06
23165 H 138.76702729169685 89.01233797546844 52.72055567565597 H 0.0 **** 0.06
23166 C 19.686125357484002 159.66415781533485 127.10458294228124 C 0.0 **** -0.24
23167 H 19.51080241908697 158.74128612752182 127.6575852706926 H 0.0 **** 0.06
23168 H 18.843833893717033 160.34024464063398 127.25028654842026 H 0.0 **** 0.06
23169 H 19.79202619435958 159.43781667379858 126.04355675979707 H 0.0 **** 0.06
23170 H 20.598682674394418 160.13679492891308 127.46891545764436 H 0.0 **** 0.06
23171 C 26.342525914919264 8.088423055154095 85.42668494562565 C 0.0 **** -0.24
23172 H 26.77906592172849 7.25558451484595 84.87506401117241 H 0.0 **** 0.06
23173 H 25.344899354796496 8.29733853266454 85.04028045672561 H 0.0 **** 0.06
23174 H 26.97044080165827 8.97188021991969 85.30784382089462 H 0.0 **** 0.06
23175 H 26.275769382825843 7.82943416763554 86.48271625963883 H 0.0 **** 0.06
23176 C 39.01810416550569 56.65744964269709 34.51142225373445 C 0.0 **** -0.24
23177 H 38.5935808012743 57.62209489345139 34.236276365263336 H 0.0 **** 0.06
23178 H 38.215391714090856 55.9718386882127 34.78341895240044 H 0.0 **** 0.06
23179 H 39.690795723980585 56.78512756403052 35.36061382634347 H 0.0 **** 0.06
23180 H 39.573460230109845 56.25042476735331 33.66649489298845 H 0.0 **** 0.06
23181 C 88.64899678645838 134.55126536920238 40.917516936170756 C 0.0 **** -0.24
23182 H 87.79497874124826 134.97918791313316 40.3932609807288 H 0.0 **** 0.06
23183 H 88.51136646888284 133.47482583706224 41.019989796622724 H 0.0 **** 0.06
23184 H 88.7307363109893 135.0032414763892 41.906323349311094 H 0.0 **** 0.06
23185 H 89.55911106544067 134.74880168155627 40.35147696482156 H 0.0 **** 0.06
23186 C 61.47453111409675 143.89986817589934 134.39767657872446 C 0.0 **** -0.24
23187 H 62.13797817366361 144.12354215083812 135.23176574748146 H 0.0 **** 0.06
23188 H 61.36895827298332 144.78489167502553 133.76927171447065 H 0.0 **** 0.06
23189 H 60.496629843916594 143.6069332518581 134.77988476081802 H 0.0 **** 0.06
23190 H 61.89401512857273 143.08332258446757 133.8087390959278 H 0.0 **** 0.06
23191 C 22.44680083557904 63.10349725489212 159.08049155266764 C 0.0 **** -0.24
23192 H 23.40815907708702 62.636557520931206 158.8643029805147 H 0.0 **** 0.06
23193 H 21.748170573320294 62.887098188811024 158.27200897988965 H 0.0 **** 0.06
23194 H 22.579211315364944 64.18163590230799 159.16922918996562 H 0.0 **** 0.06
23195 H 22.053339926233036 62.70743957936685 160.01720213576786 H 0.0 **** 0.06
23196 C 77.93520943605772 129.21706514142517 102.91608150076055 C 0.0 **** -0.24
23197 H 77.14365552130742 129.22292949902217 102.16741813536922 H 0.0 **** 0.06
23198 H 77.84559105749365 128.32189996105947 103.53198467472393 H 0.0 **** 0.06
23199 H 77.8467047381282 130.1024750692919 103.54618788510086 H 0.0 **** 0.06
23200 H 78.90488642730155 129.22095603632715 102.41873530784815 H 0.0 **** 0.06
23201 C 129.99550288842923 37.10804930164177 161.27523280847475 C 0.0 **** -0.24
23202 H 129.96340213640767 37.99207701835272 161.91189236171573 H 0.0 **** 0.06
23203 H 130.19950895035353 36.22796899810396 161.885699076062 H 0.0 **** 0.06
23204 H 130.7829799600078 37.2245031523545 160.53109290369292 H 0.0 **** 0.06
23205 H 129.03612050694807 36.98764803775602 160.77224689242837 H 0.0 **** 0.06
23206 C 127.44312854946881 16.987904123984038 49.8272985022148 C 0.0 **** -0.24
23207 H 128.20589273327002 17.090232848730118 49.05528782009819 H 0.0 **** 0.06
23208 H 127.81488059458084 16.342324901971544 50.62302819416345 H 0.0 **** 0.06
23209 H 126.54409808918786 16.549825434179006 49.39360719079413 H 0.0 **** 0.06
23210 H 127.20694379356567 17.969946312817285 50.23732626066098 H 0.0 **** 0.06
23211 C 120.92822228192057 136.40575605097246 48.030399450456 C 0.0 **** -0.24
23212 H 121.45687104064308 137.16585387355508 48.606630897777904 H 0.0 **** 0.06
23213 H 121.42740143353438 136.26667911802303 47.07110561784634 H 0.0 **** 0.06
23214 H 119.90076914398557 136.72722189304798 47.86222813043952 H 0.0 **** 0.06
23215 H 120.930088679157 135.4654720690473 48.581279102307974 H 0.0 **** 0.06
23216 C 150.98622822288297 65.82862763130593 59.318193112706794 C 0.0 **** -0.24
23217 H 150.2205165797053 65.06255639441547 59.43611836338215 H 0.0 **** 0.06
23218 H 151.9529286045149 65.42690848303606 59.62282070763145 H 0.0 **** 0.06
23219 H 150.73705702246832 66.68905205307115 59.9406314115335 H 0.0 **** 0.06
23220 H 151.03431331108823 66.13760139956246 58.273838813958974 H 0.0 **** 0.06
23221 C 146.21889798728606 91.04070026608952 141.24479456150047 C 0.0 **** -0.24
23222 H 146.13559976741715 91.24286475976967 142.31318064099048 H 0.0 **** 0.06
23223 H 147.152752609422 90.51463804407882 141.04703982935467 H 0.0 **** 0.06
23224 H 146.20888646541692 91.98237798751374 140.69638077647733 H 0.0 **** 0.06
23225 H 145.37906772343098 90.42426451266914 140.92516207452024 H 0.0 **** 0.06
23226 C 135.40700387905093 73.93823057892145 154.20499950562845 C 0.0 **** -0.24
23227 H 135.34521230979874 73.6717803563753 155.2599018341017 H 0.0 **** 0.06
23228 H 135.8563580993737 74.92694017520992 154.1065413586124 H 0.0 **** 0.06
23229 H 134.40618831108 73.94958763116138 153.7745636335202 H 0.0 **** 0.06
23230 H 136.0202642544774 73.20615380279443 153.6808963481826 H 0.0 **** 0.06
23231 C 6.239379840336767 38.861618807846426 158.9567630380513 C 0.0 **** -0.24
23232 H 6.2616109092533065 39.86592124959465 158.5347153926182 H 0.0 **** 0.06
23233 H 5.286719548863289 38.38816595688985 158.7171536602021 H 0.0 **** 0.06
23234 H 6.3546764316761255 38.919442259190106 160.03958713820572 H 0.0 **** 0.06
23235 H 7.054512471554403 38.27294576571121 158.53559596117944 H 0.0 **** 0.06
23236 C 51.369830812186365 95.83243065872172 45.17190975304683 C 0.0 **** -0.24
23237 H 50.59797686822645 95.77364277519503 45.93989566271976 H 0.0 **** 0.06
23238 H 51.159860580132516 95.10231913694037 44.39007119364432 H 0.0 **** 0.06
23239 H 52.34150903112426 95.62018903164048 45.61782093777107 H 0.0 **** 0.06
23240 H 51.37792049000106 96.83349305092565 44.74179177796144 H 0.0 **** 0.06
23241 C 46.22284720439764 81.28095208837445 101.31191839094075 C 0.0 **** -0.24
23242 H 45.48694853476117 81.40087739563727 100.51727387728391 H 0.0 **** 0.06
23243 H 45.981905047561014 81.9557026524038 102.13479655978801 H 0.0 **** 0.06
23244 H 47.21499023476534 81.51600694974978 100.92714539076613 H 0.0 **** 0.06
23245 H 46.20583008413442 80.25110128501984 101.670202678892 H 0.0 **** 0.06
23246 C 35.938362635218425 88.96292037699664 16.492793454707687 C 0.0 **** -0.24
23247 H 35.05678924177022 88.58549450456565 17.012212320747956 H 0.0 **** 0.06
23248 H 35.76199586358268 89.99197626035732 16.180001829844535 H 0.0 **** 0.06
23249 H 36.135143603844995 88.3448117168117 15.61702192052973 H 0.0 **** 0.06
23250 H 36.79764983895984 88.92813332851131 17.162883175433322 H 0.0 **** 0.06
23251 C 97.11732699549125 13.031105436302653 60.42085642695872 C 0.0 **** -0.24
23252 H 96.20177294658367 13.005480838416986 59.82937520253495 H 0.0 **** 0.06
23253 H 97.97854270523445 13.086416092245486 59.75523785794638 H 0.0 **** 0.06
23254 H 97.18265604083084 12.128253319232613 61.027610916111826 H 0.0 **** 0.06
23255 H 97.10430335276715 13.906447157507671 61.0715677020529 H 0.0 **** 0.06
23256 C 7.007347731024026 83.12708890074066 29.925783192283575 C 0.0 **** -0.24
23257 H 7.038045091328627 83.96345674315216 29.226909538775516 H 0.0 **** 0.06
23258 H 6.113244754315275 82.53109592938324 29.739162877568567 H 0.0 **** 0.06
23259 H 6.9838312281482615 83.50802834045061 30.946630861668673 H 0.0 **** 0.06
23260 H 7.892890706934509 82.50690518574629 29.789080466410205 H 0.0 **** 0.06
23261 C 119.41264094540983 63.19766231174724 54.46746629655958 C 0.0 **** -0.24
23262 H 119.81058799690913 63.97179311281195 53.81032891044478 H 0.0 **** 0.06
23263 H 118.91439461074455 62.43453320129939 53.86985237746545 H 0.0 **** 0.06
23264 H 118.69800425774565 63.64188649536831 55.15948443205663 H 0.0 **** 0.06
23265 H 120.22899387365612 62.74401747380493 55.029497535495636 H 0.0 **** 0.06
23266 C 119.2050644870506 84.66041694574032 92.85354242344627 C 0.0 **** -0.24
23267 H 119.26706224965099 85.08596086460851 93.85556264920186 H 0.0 **** 0.06
23268 H 118.73470577420554 83.67769419876716 92.90442055269578 H 0.0 **** 0.06
23269 H 120.20839368738359 84.56376942190691 92.437664251573 H 0.0 **** 0.06
23270 H 118.60959491016615 85.31594863271707 92.2178789476334 H 0.0 **** 0.06
23271 C 2.9977444601098284 62.70602312672794 112.39302371578461 C 0.0 **** -0.24
23272 H 3.3587540632627224 63.64716512253207 111.97862697716465 H 0.0 **** 0.06
23273 H 3.80149142964666 61.96902509819685 112.37514599668549 H 0.0 **** 0.06
23274 H 2.159895990291602 62.344044878973875 111.79624940539242 H 0.0 **** 0.06
23275 H 2.6701508333823654 62.86300660154181 113.42039728018301 H 0.0 **** 0.06
23276 C 105.50614764880007 72.09569759322456 40.59840275717232 C 0.0 **** -0.24
23277 H 105.21332367430435 71.76271588063562 41.5943912964901 H 0.0 **** 0.06
23278 H 106.51594244828499 71.7470776274507 40.3812658271418 H 0.0 **** 0.06
23279 H 105.47980343145423 73.18492073052431 40.55824290468905 H 0.0 **** 0.06
23280 H 104.81419672454643 71.6881613314978 39.86176990979621 H 0.0 **** 0.06
23281 C 39.292135823319995 42.48769810354271 131.1604354539545 C 0.0 **** -0.24
23282 H 40.08080101938913 42.47007033315829 131.91232528114716 H 0.0 **** 0.06
23283 H 38.386526196967225 42.0435805797551 131.5750095968953 H 0.0 **** 0.06
23284 H 39.60989955436679 41.91820949302178 130.28728897325414 H 0.0 **** 0.06
23285 H 39.09065112239699 43.51858690647286 130.86831721752253 H 0.0 **** 0.06
23286 C 63.71347628879283 72.21835773128248 160.90811969219016 C 0.0 **** -0.24
23287 H 62.65295098755922 72.38053126916228 161.10052209048706 H 0.0 **** 0.06
23288 H 64.28253989499626 72.42201842740677 161.81528108544063 H 0.0 **** 0.06
23289 H 64.04454874169477 72.88594249274023 160.11295904382465 H 0.0 **** 0.06
23290 H 63.87255190979391 71.1831291049993 160.6047164574566 H 0.0 **** 0.06
23291 C 108.13258219350462 132.88826083923965 128.8785183969141 C 0.0 **** -0.24
23292 H 108.60927622308122 133.67460802343757 129.46324119037754 H 0.0 **** 0.06
23293 H 107.40252512242546 133.33265436831329 128.20110053601144 H 0.0 **** 0.06
23294 H 107.63033850358443 132.19126184312512 129.54818583918072 H 0.0 **** 0.06
23295 H 108.88857504327189 132.35664738730515 128.30097896770886 H 0.0 **** 0.06
23296 C 96.77687566869645 58.696555835117564 159.86527176196822 C 0.0 **** -0.24
23297 H 96.15324491769013 57.855478949227916 159.56200748754088 H 0.0 **** 0.06
23298 H 96.97635428457636 58.63258915177353 160.93473442471165 H 0.0 **** 0.06
23299 H 96.25832922775606 59.630169840893444 159.64725494760083 H 0.0 **** 0.06
23300 H 97.71770820990275 58.66641533708652 159.31685996660391 H 0.0 **** 0.06
23301 C 81.64994067858602 97.83873300908618 142.8354309513278 C 0.0 **** -0.24
23302 H 80.71531000812736 98.27780436775186 143.18520620003227 H 0.0 **** 0.06
23303 H 82.05783923235771 97.18976292352085 143.61046221343355 H 0.0 **** 0.06
23304 H 82.36253597403035 98.63250816753484 142.61228349900023 H 0.0 **** 0.06
23305 H 81.46105329712464 97.25610456065507 141.93431693240518 H 0.0 **** 0.06
23306 C 22.476841537356705 114.49685131354542 133.87492252317293 C 0.0 **** -0.24
23307 H 23.314004257125646 114.87856526000965 133.29004825002875 H 0.0 **** 0.06
23308 H 22.71114506061889 114.57452509916524 134.9369255921114 H 0.0 **** 0.06
23309 H 22.299200952390407 113.45336366582399 133.61602256584092 H 0.0 **** 0.06
23310 H 21.583891096213165 115.08253355572666 133.65537824221857 H 0.0 **** 0.06
23311 C 93.40231924054089 35.78697553383377 67.76229136439385 C 0.0 **** -0.24
23312 H 94.15167803690353 35.95686693439676 68.53468707183757 H 0.0 **** 0.06
23313 H 92.40978093708195 35.78536831243751 68.21361498532976 H 0.0 **** 0.06
23314 H 93.58568496679926 34.82556402757503 67.28364666339652 H 0.0 **** 0.06
23315 H 93.46174213308103 36.58099812441965 67.01700286837138 H 0.0 **** 0.06
23316 C 154.10811511587067 68.84405163757624 38.99470666050442 C 0.0 **** -0.24
23317 H 154.32488397397879 67.81140103415856 39.26871917752503 H 0.0 **** 0.06
23318 H 154.69403953951306 69.11758159718045 38.116037866395374 H 0.0 **** 0.06
23319 H 154.36844459370465 69.50244681996593 39.82406257469417 H 0.0 **** 0.06
23320 H 153.04709768691833 68.94575391732084 38.76985009690813 H 0.0 **** 0.06
23321 C 90.71879770143528 47.0314289084596 77.90112908890633 C 0.0 **** -0.24
23322 H 91.47015268113032 47.158881713311374 78.68067725556963 H 0.0 **** 0.06
23323 H 90.97655347067433 46.16910486781239 77.2863250014768 H 0.0 **** 0.06
23324 H 90.68679654795731 47.926167698889344 77.27885238169156 H 0.0 **** 0.06
23325 H 89.74393594731453 46.87306535981058 78.36030045943227 H 0.0 **** 0.06
23326 C 9.740307553430284 15.47342538909033 127.27211798169816 C 0.0 **** -0.24
23327 H 10.403250610015306 14.638625362844358 127.49792155512415 H 0.0 **** 0.06
23328 H 10.30487845491129 16.259598829067663 126.77185720547527 H 0.0 **** 0.06
23329 H 9.317930292891162 15.861641339272964 128.19824521010213 H 0.0 **** 0.06
23330 H 8.935669481036825 15.131710292050556 126.62093043153641 H 0.0 **** 0.06
23331 C 119.22548702994527 126.66280699045103 92.75736919046416 C 0.0 **** -0.24
23332 H 119.78553204131549 126.99578207450548 91.88326104543663 H 0.0 **** 0.06
23333 H 118.30414143321067 127.2388396451421 92.84004028953505 H 0.0 **** 0.06
23334 H 119.82893059225808 126.81035471216845 93.6522621181115 H 0.0 **** 0.06
23335 H 118.98406659151951 125.60456825347472 92.65065065022837 H 0.0 **** 0.06
23336 C 132.64199494696675 61.93367939505168 38.988006931252016 C 0.0 **** -0.24
23337 H 131.85172829972998 61.36320543335199 39.474492179498014 H 0.0 **** 0.06
23338 H 133.35423459050548 62.28015493362739 39.73629178467172 H 0.0 **** 0.06
23339 H 132.20588397744194 62.79168944471644 38.47508600764145 H 0.0 **** 0.06
23340 H 133.153989862963 61.29972427026712 38.26325870065949 H 0.0 **** 0.06
23341 C 70.84379694023455 63.39427596860379 67.903271942126 C 0.0 **** -0.24
23342 H 71.14974292341665 64.43577344753086 67.80678412726887 H 0.0 **** 0.06
23343 H 71.24968834925673 62.8189258932038 67.07050466000074 H 0.0 **** 0.06
23344 H 69.75559829994158 63.33317430937622 67.89097718045927 H 0.0 **** 0.06
23345 H 71.21994510540323 62.99138151015822 68.84274169585834 H 0.0 **** 0.06
23346 C 19.67806909381278 122.91907584791818 54.50123861500616 C 0.0 **** -0.24
23347 H 19.455240413141524 123.61130574432605 55.31342702728874 H 0.0 **** 0.06
23348 H 20.69781964373442 123.08376721446649 54.15307855198981 H 0.0 **** 0.06
23349 H 18.98133177316663 123.08621580731858 53.680705768523325 H 0.0 **** 0.06
23350 H 19.57752325171697 121.8939825447643 54.860536774310745 H 0.0 **** 0.06
23351 C 151.1597900911674 14.131076433093355 15.21705660263541 C 0.0 **** -0.24
23352 H 150.38249720305413 14.410317602211698 15.929114201549453 H 0.0 **** 0.06
23353 H 151.79431004145022 13.361926641699434 15.655262981586134 H 0.0 **** 0.06
23354 H 151.76323664636695 15.007398349019546 14.977114823022362 H 0.0 **** 0.06
23355 H 150.69783923108974 13.74818004400177 14.306755756369682 H 0.0 **** 0.06
23356 C 127.29240256669084 58.258290203093566 1.884282222284412 C 0.0 **** -0.24
23357 H 127.21030643631468 59.229886464570995 1.3984368289637814 H 0.0 **** 0.06
23358 H 127.20989750125625 57.46940517142423 1.1360000521183906 H 0.0 **** 0.06
23359 H 126.49174464962664 58.15007177146151 2.616900519084254 H 0.0 **** 0.06
23360 H 128.2569725783111 58.18371857847279 2.3865118750013607 H 0.0 **** 0.06
23361 C 151.13713219056604 87.16446021506508 44.71035756389105 C 0.0 **** -0.24
23362 H 150.15687724183027 86.76151318474065 44.45363044317142 H 0.0 **** 0.06
23363 H 151.18937601470134 88.21101634323405 44.40862467207981 H 0.0 **** 0.06
23364 H 151.91025322835821 86.59710575642907 44.192212184211385 H 0.0 **** 0.06
23365 H 151.28963118461888 87.0883850877463 45.78646232450397 H 0.0 **** 0.06
23366 C 141.96079857402415 24.82624659807213 90.6212585879647 C 0.0 **** -0.24
23367 H 142.35233937103692 24.722493174300034 89.60856271402103 H 0.0 **** 0.06
23368 H 140.9683752531758 25.275487553715045 90.58211300717585 H 0.0 **** 0.06
23369 H 142.6259800822234 25.46257333550725 91.20468012503879 H 0.0 **** 0.06
23370 H 141.89750823587457 23.843098713170782 91.08788845441191 H 0.0 **** 0.06
23371 C 76.15448171496166 138.49179327294638 103.36414253109905 C 0.0 **** -0.24
23372 H 76.34154518318212 137.4484546045665 103.11000371309862 H 0.0 **** 0.06
23373 H 76.49604517175968 139.1304654747667 102.54937747981381 H 0.0 **** 0.06
23374 H 76.69426948844415 138.74564518581928 104.27621884892787 H 0.0 **** 0.06
23375 H 75.08653506912066 138.64146981125114 103.52027301149889 H 0.0 **** 0.06
23376 C 139.0094361735063 16.770318471416395 79.56121139391482 C 0.0 **** -0.24
23377 H 138.58411822114698 17.638984188834662 79.05836014979516 H 0.0 **** 0.06
23378 H 138.8520376313154 16.85902246617446 80.6357150602351 H 0.0 **** 0.06
23379 H 140.07830834137008 16.719056074581324 79.35354262987002 H 0.0 **** 0.06
23380 H 138.52514715247304 15.864838383591284 79.19496444909419 H 0.0 **** 0.06
23381 C 46.06007536204042 103.16154424381338 162.70539628764425 C 0.0 **** -0.24
23382 H 46.55711156939688 103.5086241708562 163.61080910176318 H 0.0 **** 0.06
23383 H 45.94826278108063 103.99509279885834 162.0106325390494 H 0.0 **** 0.06
23384 H 45.0763837791408 102.76715760274834 162.96039610409503 H 0.0 **** 0.06
23385 H 46.657276870291994 102.37793249039288 162.24043951812536 H 0.0 **** 0.06
23386 C 77.62416953239557 46.73691500983044 115.9954935026781 C 0.0 **** -0.24
23387 H 77.41144306231055 45.69224964190991 115.76768089282379 H 0.0 **** 0.06
23388 H 78.23102476799812 46.79477162653383 116.89887613441556 H 0.0 **** 0.06
23389 H 76.68814320158299 47.27329117795834 116.15006762471299 H 0.0 **** 0.06
23390 H 78.16781357403102 47.18569076311533 115.16306789708537 H 0.0 **** 0.06
23391 C 46.936908845674225 141.54340961509814 134.06691096905473 C 0.0 **** -0.24
23392 H 47.61461617969434 142.06152126856443 133.39007356504428 H 0.0 **** 0.06
23393 H 46.361691509624904 140.8037611037051 133.50942467215046 H 0.0 **** 0.06
23394 H 46.257136363599244 142.2635844498447 134.52281386511584 H 0.0 **** 0.06
23395 H 47.51332767276318 141.04390702569637 134.84655922337078 H 0.0 **** 0.06
23396 C 53.41271028852654 49.58436826406901 145.03607307793013 C 0.0 **** -0.24
23397 H 53.79996113779326 50.41891948596091 145.6199976216036 H 0.0 **** 0.06
23398 H 53.656149024273205 48.64737200862129 145.53744366946128 H 0.0 **** 0.06
23399 H 53.863704432560894 49.594201292135 144.0445871212609 H 0.0 **** 0.06
23400 H 52.330610070475274 49.676887518903754 144.94445891309084 H 0.0 **** 0.06
23401 C 60.751611499551984 132.4929336583171 149.8269418416856 C 0.0 **** -0.24
23402 H 60.831365489616815 131.43505175510012 149.57440457619992 H 0.0 **** 0.06
23403 H 61.65753697080268 132.81122831524763 150.3440573487182 H 0.0 **** 0.06
23404 H 59.88898067625428 132.64800385531424 150.47445719522625 H 0.0 **** 0.06
23405 H 60.62982851024145 133.0750637439518 148.91320482344412 H 0.0 **** 0.06
23406 C 102.15820361856143 147.26994211146624 162.65674142846729 C 0.0 **** -0.24
23407 H 102.86349028016446 148.08921786452552 162.7965549613177 H 0.0 **** 0.06
23408 H 101.40243430710368 147.56172067683366 161.92760572896148 H 0.0 **** 0.06
23409 H 101.67817068145968 147.03884939278902 163.60733301858087 H 0.0 **** 0.06
23410 H 102.69110856626719 146.38982271819202 162.29598798707465 H 0.0 **** 0.06
23411 C 40.924560319243426 37.49002887332543 27.486523751451045 C 0.0 **** -0.24
23412 H 40.57348301225312 36.499110633106454 27.19947740404308 H 0.0 **** 0.06
23413 H 41.918281973338466 37.657075984607644 27.070847922389532 H 0.0 **** 0.06
23414 H 40.968446628554176 37.56019224105455 28.573203068491637 H 0.0 **** 0.06
23415 H 40.23762501984227 38.24377430510438 27.10165289584677 H 0.0 **** 0.06
23416 C 20.89266862788744 87.43279617993433 59.37306490973761 C 0.0 **** -0.24
23417 H 20.822073967082694 87.96770290091187 58.42626290681079 H 0.0 **** 0.06
23418 H 21.941101149566514 87.30223907974516 59.64060170874886 H 0.0 **** 0.06
23419 H 20.418204485689024 86.45651149987116 59.274688836284184 H 0.0 **** 0.06
23420 H 20.387523048602716 88.00462560602845 60.152066151265785 H 0.0 **** 0.06
23421 C 139.56148838289602 38.907679915735386 145.64080957508804 C 0.0 **** -0.24
23422 H 139.37878838422014 37.86187270328362 145.88870643697925 H 0.0 **** 0.06
23423 H 139.48240733276958 39.51409854492677 146.5432127535118 H 0.0 **** 0.06
23424 H 138.82205729453398 39.24137762891475 144.91171808184725 H 0.0 **** 0.06
23425 H 140.5607490856176 39.01135976224566 145.21852959932528 H 0.0 **** 0.06
23426 C 113.93512829950481 112.38951067513085 156.75946873551035 C 0.0 **** -0.24
23427 H 114.08066474932565 111.32871433947324 156.55097128366117 H 0.0 **** 0.06
23428 H 113.68871508682324 112.52084049980519 157.8133310967715 H 0.0 **** 0.06
23429 H 113.12022146688167 112.772088935178 156.14495137689033 H 0.0 **** 0.06
23430 H 114.85104732328307 112.93269687586755 156.52914740332278 H 0.0 **** 0.06
23431 C 104.55801027698976 58.664452539306936 59.73399561283627 C 0.0 **** -0.24
23432 H 103.72299267467474 58.923575049230564 60.38487807758162 H 0.0 **** 0.06
23433 H 104.25032980103265 57.877473790838906 59.044141944029576 H 0.0 **** 0.06
23434 H 105.39363294231498 58.31227017539412 60.338112467491754 H 0.0 **** 0.06
23435 H 104.86375018146384 59.54428913061304 59.16843083341509 H 0.0 **** 0.06
23436 C 147.00083269312785 121.0291703870792 159.16047375126817 C 0.0 **** -0.24
23437 H 147.42153102179498 120.06241668580282 158.88650110713365 H 0.0 **** 0.06
23438 H 146.9679736670102 121.11540149218331 160.24719882165755 H 0.0 **** 0.06
23439 H 145.99006710296067 121.11228006469196 158.75898824878345 H 0.0 **** 0.06
23440 H 147.6212016669857 121.82534331853219 158.75059350702455 H 0.0 **** 0.06
23441 C 83.45116036320024 119.90433476534474 145.5969391867279 C 0.0 **** -0.24
23442 H 84.02911422822663 120.80494212696863 145.38885128286037 H 0.0 **** 0.06
23443 H 82.68569124513151 120.12839922861838 146.34013567027614 H 0.0 **** 0.06
23444 H 84.11364573236352 119.12904376966549 145.97929740225567 H 0.0 **** 0.06
23445 H 82.97636245651755 119.55817874184453 144.6787165449934 H 0.0 **** 0.06
23446 C 5.445516542795929 140.83575235692854 126.44924542977839 C 0.0 **** -0.24
23447 H 6.391863302240665 141.33773383841523 126.65273323058295 H 0.0 **** 0.06
23448 H 5.569176123671355 139.76050513887498 126.57614920220124 H 0.0 **** 0.06
23449 H 5.134957005596448 141.04852846158172 125.42668005940936 H 0.0 **** 0.06
23450 H 4.686769059291436 141.1990776359147 127.14299097427045 H 0.0 **** 0.06
23451 C 28.400294189548617 123.16395686502415 46.900487402985874 C 0.0 **** -0.24
23452 H 29.373415917553643 122.70682769451088 47.08007827798447 H 0.0 **** 0.06
23453 H 27.614273681728974 122.43491622521378 47.09652146203493 H 0.0 **** 0.06
23454 H 28.3400562121829 123.49366876711525 45.86317341418777 H 0.0 **** 0.06
23455 H 28.273997002962574 124.02151434481112 47.56149046714039 H 0.0 **** 0.06
23456 C 119.15880068063086 150.82590533242325 152.61045678474528 C 0.0 **** -0.24
23457 H 119.47691980228811 151.70516201751258 152.04997059207835 H 0.0 **** 0.06
23458 H 119.12625830040858 149.9634784193501 151.94473111540265 H 0.0 **** 0.06
23459 H 118.16628695421102 151.00080377702392 153.02677027196648 H 0.0 **** 0.06
23460 H 119.8632375265806 150.63596340986794 153.41910664429173 H 0.0 **** 0.06
23461 C 51.91035882870494 151.76712129370736 51.555989467988184 C 0.0 **** -0.24
23462 H 52.35188235659734 152.35594153845065 52.361324561863455 H 0.0 **** 0.06
23463 H 51.984513467389206 150.70699430962648 51.79963622478351 H 0.0 **** 0.06
23464 H 52.44490739370741 151.9654728901191 50.627590685785094 H 0.0 **** 0.06
23465 H 50.86269691395603 152.04091036663343 51.43852517948159 H 0.0 **** 0.06
23466 C 128.37720901908415 42.43114340443093 76.4917205216505 C 0.0 **** -0.24
23467 H 128.05813418629813 42.640725864097874 75.4706410405754 H 0.0 **** 0.06
23468 H 128.5917701893207 41.367305909478304 76.59345127159213 H 0.0 **** 0.06
23469 H 127.58301958301396 42.710012448076 77.18444706240663 H 0.0 **** 0.06
23470 H 129.27489022923905 43.00685752689577 76.71665505245085 H 0.0 **** 0.06
23471 C 38.46151069913324 123.80652321940647 159.90447897549006 C 0.0 **** -0.24
23472 H 39.295593587604344 124.35257735408558 159.46362585182055 H 0.0 **** 0.06
23473 H 37.929342820700285 124.45555069569824 160.6002616669189 H 0.0 **** 0.06
23474 H 38.839532628025054 122.93453540959445 160.43823504190473 H 0.0 **** 0.06
23475 H 37.78157376020317 123.4834294182478 159.11579334131608 H 0.0 **** 0.06
23476 C 9.49950040206928 113.7376933621947 20.21279239393681 C 0.0 **** -0.24
23477 H 9.410900316058282 113.46121387196621 19.162259687951007 H 0.0 **** 0.06
23478 H 8.851002190228776 113.09820919652333 20.812271292665685 H 0.0 **** 0.06
23479 H 9.203644144561686 114.77857147822272 20.34045465474145 H 0.0 **** 0.06
23480 H 10.532843704786274 113.61141952277978 20.536151943408356 H 0.0 **** 0.06
23481 C 152.64636971934152 81.72482942866742 102.77129587266862 C 0.0 **** -0.24
23482 H 153.15384401470124 82.09769577076463 101.88102826257395 H 0.0 **** 0.06
23483 H 151.78590708043885 82.35817666205077 102.99075027041559 H 0.0 **** 0.06
23484 H 153.33444119089472 81.74143996118616 103.61592512057214 H 0.0 **** 0.06
23485 H 152.30962347959613 80.70325750526098 102.59531966010118 H 0.0 **** 0.06
23486 C 63.85807598421016 107.8024105183625 43.3594089112775 C 0.0 **** -0.24
23487 H 63.8829562010054 108.29397164455017 44.331652950634094 H 0.0 **** 0.06
23488 H 64.40506030841847 108.40540140034014 42.63355420950219 H 0.0 **** 0.06
23489 H 62.8236297600145 107.69200046047555 43.0338256048052 H 0.0 **** 0.06
23490 H 64.32089222527168 106.8191363975466 43.437511131575874 H 0.0 **** 0.06
23491 C 128.13091301047623 101.52915089108436 145.99186859048348 C 0.0 **** -0.24
23492 H 128.5696924331708 102.49589394507726 145.74480110277005 H 0.0 **** 0.06
23493 H 128.1633947160954 101.38101723710488 147.07128242038948 H 0.0 **** 0.06
23494 H 128.69551572124357 100.73772342482602 145.49844867247964 H 0.0 **** 0.06
23495 H 127.09560957960375 101.50233328481687 145.6516958643727 H 0.0 **** 0.06
23496 C 65.06626132278672 22.040516254552756 99.99955653620819 C 0.0 **** -0.24
23497 H 65.34242321832446 22.98038319251154 99.52195252577226 H 0.0 **** 0.06
23498 H 64.17356945556503 21.63824854297303 99.51993815256156 H 0.0 **** 0.06
23499 H 64.86298907718741 22.21645079538328 101.05581847492635 H 0.0 **** 0.06
23500 H 65.88508733136544 21.328328880125724 99.90003291143438 H 0.0 **** 0.06
23501 C 161.70410449508256 67.87189421505997 119.44009765516617 C 0.0 **** -0.24
23502 H 161.99901360659118 66.84226246039748 119.64194391890055 H 0.0 **** 0.06
23503 H 161.63760316022442 68.42172942223533 120.37921675886696 H 0.0 **** 0.06
23504 H 160.73425434316437 67.88137850848901 118.94314033935112 H 0.0 **** 0.06
23505 H 162.44624824695453 68.34270225766961 118.79557745634912 H 0.0 **** 0.06
23506 C 50.64382969687452 66.44947045180527 13.554965108981726 C 0.0 **** -0.24
23507 H 51.48177261642819 66.10982807569019 14.163324016901726 H 0.0 **** 0.06
23508 H 50.857108948315144 67.44591545868002 13.166651836544297 H 0.0 **** 0.06
23509 H 49.74095812670899 66.4825407007973 14.165943166255545 H 0.0 **** 0.06
23510 H 50.494526220070114 65.7597009326463 12.724226677759724 H 0.0 **** 0.06
23511 C 110.23809976596635 81.46308214658552 135.38447466825892 C 0.0 **** -0.24
23512 H 109.80358312234148 80.46910665630728 135.27730717170016 H 0.0 **** 0.06
23513 H 111.04741312263485 81.58604345988857 134.66434323580773 H 0.0 **** 0.06
23514 H 110.62959608255375 81.58169650100044 136.3946459979631 H 0.0 **** 0.06
23515 H 109.47119589942076 82.21562766322802 135.2008240120294 H 0.0 **** 0.06
23516 C 82.97885594619908 102.07980614249331 156.15278269336017 C 0.0 **** -0.24
23517 H 83.44291423984478 101.91704097895058 155.17945577453347 H 0.0 **** 0.06
23518 H 82.42216100322428 103.01693336625968 156.1375127776864 H 0.0 **** 0.06
23519 H 83.7519589831467 102.12787144534082 156.92022213903468 H 0.0 **** 0.06
23520 H 82.29946364625182 101.25633788986542 156.37306659770098 H 0.0 **** 0.06
23521 C 143.63292585895704 139.29307952678982 121.0293139797507 C 0.0 **** -0.24
23522 H 143.74680311177272 140.36418892424933 120.86523333611703 H 0.0 **** 0.06
23523 H 143.99234118010938 138.7512101313605 120.15430995053913 H 0.0 **** 0.06
23524 H 142.58110220689156 139.0613857232296 121.19430433140926 H 0.0 **** 0.06
23525 H 144.2121629224539 138.99648575187962 121.90417936146588 H 0.0 **** 0.06
23526 C 11.393107133006794 5.645339364958261 8.887982959391366 C 0.0 **** -0.24
23527 H 11.356076252116694 4.984573932067747 9.75461358456755 H 0.0 **** 0.06
23528 H 11.332265427849073 6.6821356391535005 9.219712738674787 H 0.0 **** 0.06
23529 H 10.55458519013942 5.424993553312817 8.227109643038744 H 0.0 **** 0.06
23530 H 12.32908168649599 5.489152283513704 8.35209950939398 H 0.0 **** 0.06
23531 C 48.47396412926862 157.7023543074221 137.0445395076918 C 0.0 **** -0.24
23532 H 47.43886460924996 158.0338165658842 136.96276783020147 H 0.0 **** 0.06
23533 H 48.572462631694606 156.70975102459627 136.60591141763422 H 0.0 **** 0.06
23534 H 48.76141631194477 157.66694061933688 138.09514788190148 H 0.0 **** 0.06
23535 H 49.12049950625284 158.4006891649556 136.51429593082156 H 0.0 **** 0.06
23536 C 89.1141135689856 8.712997782631916 153.6290453423802 C 0.0 **** -0.24
23537 H 88.2823517501667 8.326953062642595 154.21990206206613 H 0.0 **** 0.06
23538 H 90.05490396965001 8.393098084783276 154.07657014519003 H 0.0 **** 0.06
23539 H 89.07023178355183 9.80136076798977 153.61062748192336 H 0.0 **** 0.06
23540 H 89.04544349634102 8.328747532258404 152.61136905794285 H 0.0 **** 0.06
23541 C 21.090709594292434 159.8315126389026 52.77292679957216 C 0.0 **** -0.24
23542 H 22.131834278591782 159.5739231494368 52.96753385098006 H 0.0 **** 0.06
23543 H 21.03536899805124 160.48865413601553 51.90380747957829 H 0.0 **** 0.06
23544 H 20.67419766341459 160.3422750866351 53.64137392126254 H 0.0 **** 0.06
23545 H 20.521353625787356 158.92244747863415 52.57833445293366 H 0.0 **** 0.06
23546 C 28.784832215912722 66.90982874767104 63.358811099507676 C 0.0 **** -0.24
23547 H 29.132238317862672 66.45514834452462 62.431731517700115 H 0.0 **** 0.06
23548 H 28.25283935124262 67.83477029704838 63.1328030826685 H 0.0 **** 0.06
23549 H 29.640759059545914 67.12974889655 63.99778078364869 H 0.0 **** 0.06
23550 H 28.114417520540833 66.22065623182024 63.872573927591915 H 0.0 **** 0.06
23551 C 36.174507704110965 155.6139808228179 18.79500663839029 C 0.0 **** -0.24
23552 H 35.29137488152344 155.3488170391222 18.213757603208357 H 0.0 **** 0.06
23553 H 36.153438316013876 156.6795839832087 19.021781459718845 H 0.0 **** 0.06
23554 H 37.07075980050911 155.38080702197945 18.21971885905601 H 0.0 **** 0.06
23555 H 36.1816541877688 155.0436689278716 19.724495831985507 H 0.0 **** 0.06
23556 C 39.35421242565006 137.03568788864573 81.14855328798282 C 0.0 **** -0.24
23557 H 39.86500489351002 137.54617308097482 80.33157054328528 H 0.0 **** 0.06
23558 H 40.0927584420199 136.64208676335335 81.84817164406225 H 0.0 **** 0.06
23559 H 38.757977879319085 136.2163678410402 80.74794393198734 H 0.0 **** 0.06
23560 H 38.70286437931583 137.74122752252663 81.66599357850036 H 0.0 **** 0.06
23561 C 63.96433749179039 102.96912197925542 0.6150187254818249 C 0.0 **** -0.24
23562 H 64.6742275919925 103.62467858825073 0.11041250207997066 H 0.0 **** 0.06
23563 H 63.63668654028842 102.19013578494307 -0.07435799197764226 H 0.0 **** 0.06
23564 H 63.10235696148389 103.55122631285258 0.9417464122775243 H 0.0 **** 0.06
23565 H 64.44297451241619 102.51111156399745 1.4797561848971696 H 0.0 **** 0.06
23566 C 33.12227604873857 95.38216348900586 154.32146181847054 C 0.0 **** -0.24
23567 H 33.30700067513146 96.42436678060366 154.58097088155762 H 0.0 **** 0.06
23568 H 34.05450364156425 94.91853638084099 153.99610274204431 H 0.0 **** 0.06
23569 H 32.390805160034546 95.33195980862605 153.51545204260287 H 0.0 **** 0.06
23570 H 32.738553535839856 94.85295767864534 155.19378234648144 H 0.0 **** 0.06
23571 C 28.67429539288713 135.1200771447152 150.68871894004525 C 0.0 **** -0.24
23572 H 28.27972432141962 136.01944057948373 151.1623770039827 H 0.0 **** 0.06
23573 H 29.453513866306366 134.69109670631292 151.3197975811148 H 0.0 **** 0.06
23574 H 29.09447574154666 135.37606179391406 149.7167389241328 H 0.0 **** 0.06
23575 H 27.871325904619084 134.39596498695516 150.55829892772488 H 0.0 **** 0.06
23576 C 75.42701853511026 129.7946027494815 87.28921396287059 C 0.0 **** -0.24
23577 H 74.74202377005695 129.0108390119884 87.61366188118491 H 0.0 **** 0.06
23578 H 75.21101299953777 130.71450967479058 87.83428163768498 H 0.0 **** 0.06
23579 H 75.30161599417382 129.9668665875635 86.22054974579615 H 0.0 **** 0.06
23580 H 76.45320547114218 129.48612553891186 87.49007972089782 H 0.0 **** 0.06
23581 C 144.8695054280755 121.26775500853765 86.7100493409738 C 0.0 **** -0.24
23582 H 144.72953723986706 122.13663430713441 86.06664314027898 H 0.0 **** 0.06
23583 H 144.03507915454992 120.5786033752016 86.57720093611726 H 0.0 **** 0.06
23584 H 144.91449828432644 121.58980574393246 87.7504381260274 H 0.0 **** 0.06
23585 H 145.8001688779513 120.7664333131572 86.44412649718731 H 0.0 **** 0.06
23586 C 112.62954323397497 98.6773128621723 146.33570298743274 C 0.0 **** -0.24
23587 H 113.52707673089682 99.13111990208404 145.9148304834671 H 0.0 **** 0.06
23588 H 111.95247780065992 98.39621590449872 145.52869197552423 H 0.0 **** 0.06
23589 H 112.13517821230266 99.39215937321671 146.99269805209582 H 0.0 **** 0.06
23590 H 112.90396011250857 97.79036181649633 146.90598892309794 H 0.0 **** 0.06
23591 C 13.225791358870794 51.82537744678609 140.42474315831484 C 0.0 **** -0.24
23592 H 14.256709457615358 51.47270293813463 140.45578219055255 H 0.0 **** 0.06
23593 H 12.551202295401765 50.9698751787229 140.37678113706727 H 0.0 **** 0.06
23594 H 13.082330708085664 52.451522215681024 139.54435255488247 H 0.0 **** 0.06
23595 H 13.013896488978958 52.405654842274544 141.32304354141058 H 0.0 **** 0.06
23596 C 153.2964134900758 98.36331533780623 96.6241586819848 C 0.0 **** -0.24
23597 H 152.88167601405195 99.35734858789905 96.79653220518003 H 0.0 **** 0.06
23598 H 153.8544646210601 98.04559739476014 97.50500151940733 H 0.0 **** 0.06
23599 H 153.9635023520879 98.39334906910776 95.76230527267468 H 0.0 **** 0.06
23600 H 152.48649080737718 97.66051665043622 96.43171629123033 H 0.0 **** 0.06
23601 C 80.18939571238266 118.27288214877296 111.24111394791316 C 0.0 **** -0.24
23602 H 80.54573448317129 119.29786058252631 111.13941468240643 H 0.0 **** 0.06
23603 H 79.10368856185438 118.25378925396558 111.14211230436459 H 0.0 **** 0.06
23604 H 80.47114275754984 117.88624049631392 112.2211306454023 H 0.0 **** 0.06
23605 H 80.63677381886289 117.65308260968936 110.46370399551822 H 0.0 **** 0.06
23606 C 56.13773016961039 130.0853635804665 11.921194955367753 C 0.0 **** -0.24
23607 H 57.04839434436241 130.60964697664747 11.63122850546523 H 0.0 **** 0.06
23608 H 55.29723627305893 130.78015957175856 11.899162180413555 H 0.0 **** 0.06
23609 H 56.253535488939406 129.68714380294512 12.929682942878003 H 0.0 **** 0.06
23610 H 55.95283065166541 129.2669690658004 11.226034962664983 H 0.0 **** 0.06
23611 C 109.56454454180815 134.76367027323997 106.3447118713575 C 0.0 **** -0.24
23612 H 109.94365884304102 135.27365225243682 105.45972342479058 H 0.0 **** 0.06
23613 H 108.71505451196737 134.138580643267 106.06830000496933 H 0.0 **** 0.06
23614 H 109.24668649277751 135.50218020528007 107.08163129603065 H 0.0 **** 0.06
23615 H 110.3516236123796 134.14071636303697 106.76987516372867 H 0.0 **** 0.06
23616 C 98.49800464635177 6.614370235646618 75.40230889797337 C 0.0 **** -0.24
23617 H 98.91291038145164 7.5831063238200045 75.67826983284729 H 0.0 **** 0.06
23618 H 99.26786582053353 6.013498394156358 74.91888709642888 H 0.0 **** 0.06
23619 H 97.6641094848357 6.758146186515376 74.71545434058925 H 0.0 **** 0.06
23620 H 98.14585425064809 6.102706627554483 76.29845862361094 H 0.0 **** 0.06
23621 C 153.11662531248174 62.1925906638139 162.76067868359434 C 0.0 **** -0.24
23622 H 152.29562246877072 62.58593993245681 163.36157101326538 H 0.0 **** 0.06
23623 H 153.20605820499932 62.77595811206642 161.84407950998616 H 0.0 **** 0.06
23624 H 152.9174410820349 61.15095187337671 162.51154601254785 H 0.0 **** 0.06
23625 H 154.04509485323302 62.26109450857177 163.32750616108416 H 0.0 **** 0.06
23626 C 63.793345620917535 39.8328384232052 29.112227930273832 C 0.0 **** -0.24
23627 H 63.0975974632365 39.60414540344246 28.30416611533991 H 0.0 **** 0.06
23628 H 64.0725892886106 40.884982578194126 29.06433761595619 H 0.0 **** 0.06
23629 H 64.68553829806693 39.21496002630266 29.008886843504456 H 0.0 **** 0.06
23630 H 63.3172358434859 39.625296482776065 30.070549212339756 H 0.0 **** 0.06
23631 C 41.794762778643445 160.68831405822374 78.80532664019627 C 0.0 **** -0.24
23632 H 42.04013694841461 160.1618237944152 77.88292522078397 H 0.0 **** 0.06
23633 H 40.829663467208945 161.18447678438292 78.69442227500097 H 0.0 **** 0.06
23634 H 42.56395918762226 161.43059272410972 79.01600433243829 H 0.0 **** 0.06
23635 H 41.743134763727085 159.9743870110243 79.62728805748309 H 0.0 **** 0.06
23636 C 106.72290571784615 26.254798707044415 50.862359564687836 C 0.0 **** -0.24
23637 H 106.8695286146862 25.72590734124867 49.92080951593198 H 0.0 **** 0.06
23638 H 106.08972198674894 25.657502040779207 51.518448668488986 H 0.0 **** 0.06
23639 H 106.24269337137122 27.21409679481667 50.668155673963724 H 0.0 **** 0.06
23640 H 107.6881137974014 26.421062454616504 51.34024717864202 H 0.0 **** 0.06
23641 C 39.79285614861982 31.60524960150451 125.77092402462807 C 0.0 **** -0.24
23642 H 39.074463043907826 31.816113036774823 126.5630987619146 H 0.0 **** 0.06
23643 H 40.70881074680938 32.166917172904704 125.9513278372292 H 0.0 **** 0.06
23644 H 39.36990753983764 31.898270550049688 124.81007073174698 H 0.0 **** 0.06
23645 H 40.01644841375253 30.538621554400038 125.7579256925307 H 0.0 **** 0.06
23646 C 85.46925239401261 56.70618479328165 111.48837926735723 C 0.0 **** -0.24
23647 H 85.75706527948873 57.738228741030184 111.28861970860544 H 0.0 **** 0.06
23648 H 84.75078043753462 56.682407259434484 112.30848509585115 H 0.0 **** 0.06
23649 H 86.35186859301797 56.12911775251398 111.76121086725743 H 0.0 **** 0.06
23650 H 85.01534237096354 56.27643186647562 110.59489451819059 H 0.0 **** 0.06
23651 C 60.357170120167225 149.08073006548602 143.24231440792033 C 0.0 **** -0.24
23652 H 60.3412663053965 149.10126253811688 142.1528396133992 H 0.0 **** 0.06
23653 H 60.233037419162685 148.05316571128776 143.586890211783 H 0.0 **** 0.06
23654 H 59.54421661181533 149.69450262701878 143.62938374495937 H 0.0 **** 0.06
23655 H 61.309349166491316 149.47160087949442 143.5988643758733 H 0.0 **** 0.06
23656 C 46.141061046110195 58.628362929305325 50.30853298166949 C 0.0 **** -0.24
23657 H 46.48125866164331 58.411883036175425 49.295646064332885 H 0.0 **** 0.06
23658 H 45.186529554085524 59.15286206039775 50.2656477031054 H 0.0 **** 0.06
23659 H 46.87811146593731 59.2518438030626 50.813423165659756 H 0.0 **** 0.06
23660 H 46.01876289155787 57.69392047666241 50.85655700586477 H 0.0 **** 0.06
23661 C 103.7339752354377 99.25322858309329 66.08914543326759 C 0.0 **** -0.24
23662 H 104.605395929997 99.44582877468599 66.7135755280586 H 0.0 **** 0.06
23663 H 103.74184632629908 98.21172768019221 65.76609775475686 H 0.0 **** 0.06
23664 H 103.76097801148282 99.90532115190967 65.2163161383241 H 0.0 **** 0.06
23665 H 102.82644504650472 99.45001288595921 66.66127985596208 H 0.0 **** 0.06
23666 C 145.9013361249923 45.901330788151625 138.42332597455905 C 0.0 **** -0.24
23667 H 146.45528007409484 45.02816414627094 138.7654427949815 H 0.0 **** 0.06
23668 H 145.6702757149197 46.542599795201994 139.2745827149897 H 0.0 **** 0.06
23669 H 144.97420394829004 45.580837708658265 137.94821760136116 H 0.0 **** 0.06
23670 H 146.5049167732999 46.455624664150065 137.70409542855128 H 0.0 **** 0.06
23671 C 138.10944698220072 147.159360520204 78.56184757544867 C 0.0 **** -0.24
23672 H 137.8068935560351 148.18044750369958 78.32646555316852 H 0.0 **** 0.06
23673 H 137.32884965921932 146.46720810163603 78.24541951449177 H 0.0 **** 0.06
23674 H 138.26505784290129 147.06629011821371 79.63700339596298 H 0.0 **** 0.06
23675 H 139.03670923508867 146.92590675599251 78.0388381082414 H 0.0 **** 0.06
23676 C 14.361557664988936 99.75019229730492 115.04485329024766 C 0.0 **** -0.24
23677 H 14.946943350277138 100.36660199601738 114.36310809009802 H 0.0 **** 0.06
23678 H 14.051993412712278 98.83808139374864 114.53424821677643 H 0.0 **** 0.06
23679 H 13.479413238638614 100.30296990133294 115.36833589553385 H 0.0 **** 0.06
23680 H 14.96871829201416 99.49287914856325 115.91322866838902 H 0.0 **** 0.06
23681 C 13.459221922262458 142.77300826928098 123.52178300911004 C 0.0 **** -0.24
23682 H 12.837002750681442 143.28367570956917 122.7860874494119 H 0.0 **** 0.06
23683 H 13.30086426075944 143.22011507001935 124.50313728445767 H 0.0 **** 0.06
23684 H 14.507683390527475 142.87199559109303 123.24082943170924 H 0.0 **** 0.06
23685 H 13.189572202831982 141.71710244199747 123.55459744830603 H 0.0 **** 0.06
23686 C 124.53767359690946 88.5738452701727 136.1247198818245 C 0.0 **** -0.24
23687 H 124.3551435785104 87.51383357960471 135.94743234047027 H 0.0 **** 0.06
23688 H 125.51221241337316 88.69982544801265 136.59605515038868 H 0.0 **** 0.06
23689 H 123.76192823960955 88.97040388942293 136.7800505388027 H 0.0 **** 0.06
23690 H 124.5198656193428 89.10874759330636 135.1754242369439 H 0.0 **** 0.06
23691 C 112.52780138111586 76.93801680766279 151.63315599695915 C 0.0 **** -0.24
23692 H 111.88154204377508 77.33548057609681 152.41610701320946 H 0.0 **** 0.06
23693 H 111.96388139783897 76.85397255292477 150.70467140206057 H 0.0 **** 0.06
23694 H 112.89200791247421 75.95399295175702 151.92857521272595 H 0.0 **** 0.06
23695 H 113.37416321249756 77.60867903197823 151.4854715973991 H 0.0 **** 0.06
23696 C 69.42005703641264 43.265795458361396 23.45448738567856 C 0.0 **** -0.24
23697 H 70.09968713708659 43.40894024081891 22.613493687502796 H 0.0 **** 0.06
23698 H 69.97296890446508 42.86272523662211 24.302548525439477 H 0.0 **** 0.06
23699 H 68.63223141593467 42.56880379599562 23.16886478757192 H 0.0 **** 0.06
23700 H 68.97612316480858 44.22243877671059 23.729990809117453 H 0.0 **** 0.06
23701 C 14.274943530320968 26.90338120770926 126.8303120968065 C 0.0 **** -0.24
23702 H 15.204936374985607 27.471127486357233 126.80502730673115 H 0.0 **** 0.06
23703 H 13.513565514578403 27.476981115624483 127.35996061521934 H 0.0 **** 0.06
23704 H 14.441300934973441 25.957287129787915 127.34614548871045 H 0.0 **** 0.06
23705 H 13.939911714872522 26.708675755608482 125.81141792590648 H 0.0 **** 0.06
23706 C 139.0793774569866 104.56450434879878 37.298387710469385 C 0.0 **** -0.24
23707 H 138.95396928215575 104.79557425901353 38.3565962754723 H 0.0 **** 0.06
23708 H 138.39604597641238 105.17792565124279 36.7103415582427 H 0.0 **** 0.06
23709 H 138.86072427192948 103.5110769100562 37.12866081729456 H 0.0 **** 0.06
23710 H 140.10652572841053 104.77611130136026 37.00014485322899 H 0.0 **** 0.06
23711 C 95.05518355210745 130.57699798217487 22.074513820820812 C 0.0 **** -0.24
23712 H 95.74264816215162 130.8990570903504 21.291604354702542 H 0.0 **** 0.06
23713 H 95.07765893226059 129.4904076636419 22.153134241911573 H 0.0 **** 0.06
23714 H 94.04443003215556 130.90212385655263 21.824779178149754 H 0.0 **** 0.06
23715 H 95.35388245083544 131.01787118226758 23.025019798470453 H 0.0 **** 0.06
23716 C 22.91383182413017 35.483302963457916 40.17362024636873 C 0.0 **** -0.24
23717 H 21.88407590904785 35.83025012203068 40.089606722813585 H 0.0 **** 0.06
23718 H 23.51318708930671 36.24315680696603 40.675770899427874 H 0.0 **** 0.06
23719 H 23.318113386955076 35.3010569366474 39.177576733549984 H 0.0 **** 0.06
23720 H 22.939773031056802 34.55928926727499 40.75070479893401 H 0.0 **** 0.06
23721 C 4.260272665520404 94.96920471400261 6.430309922421323 C 0.0 **** -0.24
23722 H 4.922271826663689 95.73332533928183 6.837566147559933 H 0.0 **** 0.06
23723 H 4.6086801063726455 94.67876916082969 5.438164086050371 H 0.0 **** 0.06
23724 H 3.248074471901873 95.36606369471323 6.35875858565349 H 0.0 **** 0.06
23725 H 4.264249993180499 94.097984636194 7.085875810843305 H 0.0 **** 0.06
23726 C 57.25318904257216 128.01994649053228 81.81530638662485 C 0.0 **** -0.24
23727 H 56.61579229217618 128.24733184852766 82.66972205509347 H 0.0 **** 0.06
23728 H 58.298583629655965 128.12755012193801 82.10275975709456 H 0.0 **** 0.06
23729 H 57.027304760211194 128.7085539952923 81.00138511384034 H 0.0 **** 0.06
23730 H 57.069025984477335 126.9971035843586 81.48784006657434 H 0.0 **** 0.06
23731 C 2.9031144007096543 148.82743243901746 61.980027712021496 C 0.0 **** -0.24
23732 H 2.543221303947803 148.5991921900365 60.97663834953471 H 0.0 **** 0.06
23733 H 2.3322812769012558 148.25313414559656 62.710430958663665 H 0.0 **** 0.06
23734 H 2.7791710317480067 149.89250330063868 62.17731930792752 H 0.0 **** 0.06
23735 H 3.9585087850799425 148.56428825658503 62.056038974805944 H 0.0 **** 0.06
23736 C 145.11943905625515 15.241388618870815 108.99939274298808 C 0.0 **** -0.24
23737 H 145.79918210831204 15.253938578241602 108.1471493796083 H 0.0 **** 0.06
23738 H 145.12725765583198 16.218879525277536 109.4832029321787 H 0.0 **** 0.06
23739 H 145.4422590089347 14.481535945170222 109.7101303929858 H 0.0 **** 0.06
23740 H 144.11077993660786 15.01322051627286 108.65569092803179 H 0.0 **** 0.06
23741 C 78.65894163231201 55.31857166528516 8.04519860802543 C 0.0 **** -0.24
23742 H 79.57246925951495 55.90394861640287 8.148880577130768 H 0.0 **** 0.06
23743 H 78.03180495958966 55.7580403234424 7.268572705316387 H 0.0 **** 0.06
23744 H 78.1183135675856 55.31854306513749 8.991703310686233 H 0.0 **** 0.06
23745 H 78.91277376469885 54.29454758858607 7.771182557430848 H 0.0 **** 0.06
23746 C 15.351696884548915 28.609942923968163 44.937631209805886 C 0.0 **** -0.24
23747 H 15.965511612347825 27.742192310851806 45.17859427928107 H 0.0 **** 0.06
23748 H 15.97482885589227 29.379451022258138 44.47978762531926 H 0.0 **** 0.06
23749 H 14.901171983963422 29.001679256771013 45.84923682403053 H 0.0 **** 0.06
23750 H 14.566326572142941 28.31621102556653 44.240706593448806 H 0.0 **** 0.06
23751 C 69.26581404672362 35.82766477139171 143.91021962686065 C 0.0 **** -0.24
23752 H 69.74777900612838 36.792869873459836 143.75192947918475 H 0.0 **** 0.06
23753 H 69.89105360789245 35.036714372722145 143.49632253104562 H 0.0 **** 0.06
23754 H 68.29489656511231 35.82195385124112 143.41460133350853 H 0.0 **** 0.06
23755 H 69.12858223838805 35.6616691755994 144.9792957632252 H 0.0 **** 0.06
23756 C 101.58189002302936 105.28266346598062 84.73659972560017 C 0.0 **** -0.24
23757 H 101.28195937331645 106.1487691099718 85.32736406510196 H 0.0 **** 0.06
23758 H 100.72427236114765 104.6240444070622 84.59723776710723 H 0.0 **** 0.06
23759 H 102.37319155989303 104.7442791418404 85.25812637906823 H 0.0 **** 0.06
23760 H 101.94764135796407 105.61515858525385 83.7647675213777 H 0.0 **** 0.06
23761 C 64.43752266885951 126.85315736921783 152.08530783491483 C 0.0 **** -0.24
23762 H 64.25599332046824 126.8847550456625 153.15901892237326 H 0.0 **** 0.06
23763 H 63.80307002436024 126.09118994629193 151.63243992087587 H 0.0 **** 0.06
23764 H 65.48472240727347 126.61175294271126 151.90035244270055 H 0.0 **** 0.06
23765 H 64.20630492333623 127.82493154220555 151.64942005370955 H 0.0 **** 0.06
23766 C 44.726698591430136 66.23581965523988 30.583958014633325 C 0.0 **** -0.24
23767 H 44.06128192692904 65.39088739585071 30.408732519404268 H 0.0 **** 0.06
23768 H 45.76015489075286 65.88641248627437 30.601611167116324 H 0.0 **** 0.06
23769 H 44.482775679340136 66.69861708288715 31.540638752625654 H 0.0 **** 0.06
23770 H 44.60423496891087 66.96652332861152 29.784098228885597 H 0.0 **** 0.06
23771 C 156.65922222079976 157.03638838372692 149.5196943289294 C 0.0 **** -0.24
23772 H 156.72045569679116 156.1673231426745 148.8638796030021 H 0.0 **** 0.06
23773 H 155.66646634012815 157.47965778093203 149.44418374497914 H 0.0 **** 0.06
23774 H 157.40776750588108 157.76965943945484 149.21923072641664 H 0.0 **** 0.06
23775 H 156.84382766212303 156.7282500767712 150.54818031900703 H 0.0 **** 0.06
23776 C 92.65419906387747 57.69487468337854 160.04337258897905 C 0.0 **** -0.24
23777 H 91.90423320512349 57.980696703226386 159.3058538849336 H 0.0 **** 0.06
23778 H 92.61435996385148 58.38369670513771 160.88740868723036 H 0.0 **** 0.06
23779 H 93.64391046072807 57.73333075133485 159.58807670308124 H 0.0 **** 0.06
23780 H 92.45382670007027 56.680875985424905 160.39116340032194 H 0.0 **** 0.06
23781 C 67.96449003090662 111.88371553152172 38.691074975639864 C 0.0 **** -0.24
23782 H 67.596939281751 112.62743340726104 39.39907431559418 H 0.0 **** 0.06
23783 H 67.13620970269025 111.52204858863877 38.08193905480077 H 0.0 **** 0.06
23784 H 68.40505608539772 111.04981196579075 39.23804505501474 H 0.0 **** 0.06
23785 H 68.71867793710572 112.33667489820698 38.04817665890012 H 0.0 **** 0.06
23786 C 81.99846922274185 37.856132867281104 57.86291323217951 C 0.0 **** -0.24
23787 H 83.00888077212828 37.95385184556626 58.25938686947421 H 0.0 **** 0.06
23788 H 82.04042849157626 37.800371014744144 56.77454062530872 H 0.0 **** 0.06
23789 H 81.40761324713014 38.721605541470126 58.16068509717583 H 0.0 **** 0.06
23790 H 81.53992626498702 36.9497804902139 58.25695453365475 H 0.0 **** 0.06
23791 C 31.51555114180786 55.278221279666866 26.080670804400107 C 0.0 **** -0.24
23792 H 31.837306488487663 54.41869569155807 25.49158748836731 H 0.0 **** 0.06
23793 H 30.974936277638946 54.93269012229405 26.961568431703263 H 0.0 **** 0.06
23794 H 30.86213965939187 55.90763439640125 25.475687788515287 H 0.0 **** 0.06
23795 H 32.38766646838406 55.852656340154056 26.389900519088798 H 0.0 **** 0.06
23796 C 42.14355309758655 57.428733891495355 161.61391496259847 C 0.0 **** -0.24
23797 H 42.94931362378489 58.16307229955261 161.64619462059414 H 0.0 **** 0.06
23798 H 41.49582893328511 57.63869854577288 160.76209447630146 H 0.0 **** 0.06
23799 H 41.56429805523072 57.4851976661717 162.53497156390307 H 0.0 **** 0.06
23800 H 42.56752839298392 56.430359085254196 161.51157475924816 H 0.0 **** 0.06
23801 C 0.37417656380154085 30.772939029075552 1.2759854705874574 C 0.0 **** -0.24
23802 H 0.9550128861453686 31.406783188431824 0.607229497350005 H 0.0 **** 0.06
23803 H 0.9510806859793206 30.574117408511498 2.17974842851077 H 0.0 **** 0.06
23804 H 0.14409344177215644 29.83143023288698 0.7769626168239085 H 0.0 **** 0.06
23805 H -0.5540921251503619 31.278539824362248 1.5413586452476196 H 0.0 **** 0.06
23806 C 125.28143669119885 139.11552717412476 147.6373567624956 C 0.0 **** -0.24
23807 H 124.8534939946029 139.55015137405962 148.54097378474066 H 0.0 **** 0.06
23808 H 125.10374477884929 139.78410943484346 146.7938324525689 H 0.0 **** 0.06
23809 H 124.81314799420781 138.15130578299005 147.44123526366218 H 0.0 **** 0.06
23810 H 126.35415020327417 138.9783104433606 147.77274560544845 H 0.0 **** 0.06
23811 C 138.67942693112806 107.96360218388503 42.14935782697778 C 0.0 **** -0.24
23812 H 138.51708277200248 107.72777079302364 43.20061410168073 H 0.0 **** 0.06
23813 H 137.718575564028 108.12993395524319 41.66226415027086 H 0.0 **** 0.06
23814 H 139.19411499165787 107.13357953346807 41.665570218927016 H 0.0 **** 0.06
23815 H 139.28830044540928 108.86405492277001 42.068966523890055 H 0.0 **** 0.06
23816 C 17.846751964437857 73.7264636075986 83.89746874663342 C 0.0 **** -0.24
23817 H 18.74348843186658 74.3179601104562 84.08056826527087 H 0.0 **** 0.06
23818 H 17.956091271865944 72.74690729732917 84.36249798848252 H 0.0 **** 0.06
23819 H 17.705917837340564 73.60543034288452 82.82315102376361 H 0.0 **** 0.06
23820 H 16.981666143435916 74.23654770444124 84.3216592748966 H 0.0 **** 0.06
23821 C 14.42359902340958 142.1198540687796 119.95597248351973 C 0.0 **** -0.24
23822 H 14.967526296529122 142.50989171599093 119.09566288126828 H 0.0 **** 0.06
23823 H 13.765755617453557 142.89360785499358 120.35051773794714 H 0.0 **** 0.06
23824 H 15.133613210805734 141.81797145215867 120.72713371889023 H 0.0 **** 0.06
23825 H 13.831614288475066 141.25774489618397 119.65077801207772 H 0.0 **** 0.06
23826 C 6.461292982507473 158.41803786703088 41.393357992355035 C 0.0 **** -0.24
23827 H 5.871872277707837 157.68035902096958 40.84768497096893 H 0.0 **** 0.06
23828 H 7.5034503891067175 158.09853531806922 41.42490080733636 H 0.0 **** 0.06
23829 H 6.078511464578014 158.5099131051099 42.40908879473302 H 0.0 **** 0.06
23830 H 6.392334093099976 159.3821857271497 40.888988633551534 H 0.0 **** 0.06
23831 C 107.34270699615584 149.8989089561506 150.14908581383452 C 0.0 **** -0.24
23832 H 106.97212347411889 149.89289612397673 149.12349789071462 H 0.0 **** 0.06
23833 H 106.49870728977507 149.90250885580818 150.8393012959019 H 0.0 **** 0.06
23834 H 107.9490391755761 150.78942335192227 150.31039983062908 H 0.0 **** 0.06
23835 H 107.9494115187743 149.00952488706704 150.31998772087104 H 0.0 **** 0.06
23836 C 35.151991050012626 88.73462718436784 123.60393169919499 C 0.0 **** -0.24
23837 H 36.09159928556359 88.5697315834318 124.13210467096613 H 0.0 **** 0.06
23838 H 34.632375182600015 87.78317955202186 123.48504247367251 H 0.0 **** 0.06
23839 H 35.35712246178352 89.16226664513019 122.6233036322663 H 0.0 **** 0.06
23840 H 34.5295369656439 89.42020714352591 124.1775376961923 H 0.0 **** 0.06
23841 C 47.17357018126893 114.33246574203588 148.03937474703275 C 0.0 **** -0.24
23842 H 46.50850001885331 113.97586073504752 148.825246475185 H 0.0 **** 0.06
23843 H 47.08228383913824 115.41502927909215 147.94822727064746 H 0.0 **** 0.06
23844 H 46.90128051728733 113.8644844776286 147.09344413337772 H 0.0 **** 0.06
23845 H 48.2026514528758 114.07503750102526 148.2889970168198 H 0.0 **** 0.06
23846 C 138.06557206403187 100.61967619885638 133.8938122756516 C 0.0 **** -0.24
23847 H 137.96478497989187 101.425338806083 134.62139429762567 H 0.0 **** 0.06
23848 H 138.93854622388943 100.80308584549414 133.2683381845813 H 0.0 **** 0.06
23849 H 137.1724670334301 100.58023590137941 133.27075152269884 H 0.0 **** 0.06
23850 H 138.18465140596587 99.6712394971729 134.4177968119243 H 0.0 **** 0.06
23851 C 162.7522108342477 162.46717847239768 151.31802578602972 C 0.0 **** -0.24
23852 H 162.46540143563197 161.52953506731893 150.8415270124058 H 0.0 **** 0.06
23853 H 163.13285795971757 163.1556332929281 150.56416999513974 H 0.0 **** 0.06
23854 H 163.52729716393378 162.27496131424277 152.06000260883928 H 0.0 **** 0.06
23855 H 161.88239523485544 162.9068324738964 151.80677322330652 H 0.0 **** 0.06
23856 C 73.10173328370865 34.78670108230976 114.5842793908285 C 0.0 **** -0.24
23857 H 73.77474768043862 35.56014986098165 114.21405585222237 H 0.0 **** 0.06
23858 H 72.88203832242556 34.08328399747994 113.78187216943059 H 0.0 **** 0.06
23859 H 72.17594241742336 35.246344143377954 114.92995897766934 H 0.0 **** 0.06
23860 H 73.57721756844649 34.258935035366136 115.41175965530817 H 0.0 **** 0.06
23861 C 158.94305440703008 62.114895014100725 108.84556532489552 C 0.0 **** -0.24
23862 H 158.48019837696134 61.77173781418588 109.77125658631397 H 0.0 **** 0.06
23863 H 159.3267501581527 63.125975953058145 108.98478739616058 H 0.0 **** 0.06
23864 H 158.20089910807326 62.113868039733944 108.0473959779207 H 0.0 **** 0.06
23865 H 159.76286525126847 61.44728066409013 108.58061606171836 H 0.0 **** 0.06
23866 C 80.16932243232863 92.9391193360792 156.13887898936912 C 0.0 **** -0.24
23867 H 80.11469716190403 94.02199493000978 156.2448381581092 H 0.0 **** 0.06
23868 H 80.82205428732658 92.68863177595115 155.30190168933512 H 0.0 **** 0.06
23869 H 79.17121371362902 92.54128485368187 155.95325412098512 H 0.0 **** 0.06
23870 H 80.5683975439172 92.5043423193404 157.05447759792332 H 0.0 **** 0.06
23871 C 103.04975691396672 111.00750399704503 116.69636223799043 C 0.0 **** -0.24
23872 H 103.55488566967037 110.97184903809716 115.73193573847311 H 0.0 **** 0.06
23873 H 102.0353559799751 111.38287857321973 116.56220366427004 H 0.0 **** 0.06
23874 H 103.59604266955571 111.66863705903836 117.36797578598174 H 0.0 **** 0.06
23875 H 103.01316123894625 110.00498345408482 117.12354275789826 H 0.0 **** 0.06
23876 C 14.446878982249359 72.87864845485987 12.691055959122025 C 0.0 **** -0.24
23877 H 14.177826891737823 73.92988762906631 12.792209385781831 H 0.0 **** 0.06
23878 H 13.905922360247246 72.44462573183873 11.849089736706901 H 0.0 **** 0.06
23879 H 14.184637847234853 72.34750120267574 13.605057044840322 H 0.0 **** 0.06
23880 H 15.520528945078809 72.7937088772581 12.515685039076175 H 0.0 **** 0.06
23881 C 31.56258479445586 96.91849114247373 33.011419927196016 C 0.0 **** -0.24
23882 H 32.41584595265749 97.59087984383078 32.92892355251587 H 0.0 **** 0.06
23883 H 30.75058401774305 97.28355895063669 32.383303647175126 H 0.0 **** 0.06
23884 H 31.230311529645974 96.87985720148626 34.04888402578311 H 0.0 **** 0.06
23885 H 31.854174875325327 95.92040913479056 32.686597907740236 H 0.0 **** 0.06
23886 C 63.83579780042491 128.91094369241102 54.224352055838835 C 0.0 **** -0.24
23887 H 63.765581560678626 129.6836916691914 54.98989180041764 H 0.0 **** 0.06
23888 H 64.88087321353012 128.76892495560793 53.94573947212109 H 0.0 **** 0.06
23889 H 63.263820185095966 129.21467249497306 53.347841208644454 H 0.0 **** 0.06
23890 H 63.43403222697846 127.97585584572127 54.614534061068355 H 0.0 **** 0.06
23891 C 46.13642175927944 66.21740928963182 3.5685041087006937 C 0.0 **** -0.24
23892 H 45.89313951567232 65.16536504943328 3.422221844640518 H 0.0 **** 0.06
23893 H 46.52424374095817 66.36318069098306 4.577428639921607 H 0.0 **** 0.06
23894 H 45.237716216349384 66.81987385548692 3.4341587795738917 H 0.0 **** 0.06
23895 H 46.89031708244384 66.52039121633327 2.8417051967014686 H 0.0 **** 0.06
23896 C 112.73513069622717 5.482233638499544 24.844397436690514 C 0.0 **** -0.24
23897 H 112.08638765538046 5.89138067945764 25.61814157200169 H 0.0 **** 0.06
23898 H 112.12677960212253 5.001707877199394 24.07760031799262 H 0.0 **** 0.06
23899 H 113.40946649721016 4.748864981299839 25.286134330795278 H 0.0 **** 0.06
23900 H 113.31713851941237 6.2871746886013895 24.396345392005713 H 0.0 **** 0.06
23901 C 8.596343899617196 53.42014898393688 149.37047743482117 C 0.0 **** -0.24
23902 H 7.542594069709601 53.16689274718938 149.2493598743131 H 0.0 **** 0.06
23903 H 9.146585131592154 52.53732473652359 149.69482411333865 H 0.0 **** 0.06
23904 H 8.696310229892461 54.20664089716719 150.11840728106836 H 0.0 **** 0.06
23905 H 8.997530937825097 53.76981564153023 148.41998703454465 H 0.0 **** 0.06
23906 C 83.99971065616256 2.2779560618643657 62.439897807351215 C 0.0 **** -0.24
23907 H 84.0959384924052 2.935169492041659 61.57561916675775 H 0.0 **** 0.06
23908 H 83.1553002970582 2.59997771290341 63.048310513587026 H 0.0 **** 0.06
23909 H 84.91354865646727 2.322898281467353 63.03258420916676 H 0.0 **** 0.06
23910 H 83.83603055996053 1.254510335129254 62.10094123597884 H 0.0 **** 0.06
23911 C 86.90219877798589 105.50902575501385 23.627553031556204 C 0.0 **** -0.24
23912 H 86.07060960967 105.76472450385745 24.285725137900286 H 0.0 **** 0.06
23913 H 87.17290685196745 106.38003122518393 23.031493102585692 H 0.0 **** 0.06
23914 H 86.6059465939658 104.69407089179822 22.968823950639575 H 0.0 **** 0.06
23915 H 87.75746135143277 105.19857562833056 24.228146504052262 H 0.0 **** 0.06
23916 C 65.27857867461165 12.488636594719885 97.31908740021879 C 0.0 **** -0.24
23917 H 65.68850178227223 11.60867188853831 97.81536256032612 H 0.0 **** 0.06
23918 H 66.07359830719162 13.007353874194628 96.78344104128067 H 0.0 **** 0.06
23919 H 64.84612331935344 13.157013670836662 98.0641614430078 H 0.0 **** 0.06
23920 H 64.50588921799854 12.181095923874992 96.61427352117317 H 0.0 **** 0.06
23921 C 143.40597822671657 59.01872439375484 103.48467774644465 C 0.0 **** -0.24
23922 H 143.09975081899734 58.62790408959921 102.51352731154398 H 0.0 **** 0.06
23923 H 144.3909505714796 58.626186837244305 103.7391883174356 H 0.0 **** 0.06
23924 H 142.68575629254332 58.71197264116897 104.24270186416527 H 0.0 **** 0.06
23925 H 143.44847777967706 60.106797676146016 103.44161779050125 H 0.0 **** 0.06
23926 C 136.87715626649424 87.42645088890902 74.02865915963292 C 0.0 **** -0.24
23927 H 136.89821237088313 86.61473316368927 73.30102405090588 H 0.0 **** 0.06
23928 H 136.44828378769074 88.31670860023493 73.56770093318028 H 0.0 **** 0.06
23929 H 137.8931904424232 87.64207880530626 74.3598177659407 H 0.0 **** 0.06
23930 H 136.27009427918728 87.1314387131847 74.88410605618657 H 0.0 **** 0.06
23931 C 41.60993765433017 29.891653941066807 107.30343298270608 C 0.0 **** -0.24
23932 H 41.69492154830297 30.000881294964984 108.38482328809332 H 0.0 **** 0.06
23933 H 40.556552450723274 29.889650383318468 107.02079098830362 H 0.0 **** 0.06
23934 H 42.07004371164395 28.952141263128 106.99690532143202 H 0.0 **** 0.06
23935 H 42.1177327127801 30.72207212178668 106.81350374199914 H 0.0 **** 0.06
23936 C 59.44824439621998 75.0537333587173 154.77416079457007 C 0.0 **** -0.24
23937 H 58.38510649534845 75.2158050433761 154.59928827322491 H 0.0 **** 0.06
23938 H 59.58992866070972 74.60168384518119 155.75550764618822 H 0.0 **** 0.06
23939 H 59.9725029559236 76.00923372272729 154.73484271677825 H 0.0 **** 0.06
23940 H 59.8463582428177 74.38912794301368 154.00644345907511 H 0.0 **** 0.06
23941 C 98.72074912425126 32.280729054760826 80.17681268049319 C 0.0 **** -0.24
23942 H 99.31705597190467 31.88460976574501 80.99858424189301 H 0.0 **** 0.06
23943 H 99.15768662607888 33.216550815263616 79.82864447142262 H 0.0 **** 0.06
23944 H 97.70263397955966 32.46047914813579 80.52238512965963 H 0.0 **** 0.06
23945 H 98.70501481327744 31.559442633111587 79.35876425058251 H 0.0 **** 0.06
23946 C 24.165285146745873 116.4529904208988 118.68256603097245 C 0.0 **** -0.24
23947 H 25.215268944914328 116.3381936778695 118.41050421014512 H 0.0 **** 0.06
23948 H 24.075115914632647 116.4935691047975 119.76839049041092 H 0.0 **** 0.06
23949 H 23.59736849021823 115.6047945804772 118.30158924236386 H 0.0 **** 0.06
23950 H 23.777108264465312 117.37437600604306 118.25082756274693 H 0.0 **** 0.06
23951 C 143.88724257777366 59.37747875720622 14.588476338089265 C 0.0 **** -0.24
23952 H 143.93665892529143 58.99287750423592 15.607002600031876 H 0.0 **** 0.06
23953 H 144.4304733566392 58.707878267417044 13.921473812936199 H 0.0 **** 0.06
23954 H 144.33740632609658 60.3703024868598 14.552775591967759 H 0.0 **** 0.06
23955 H 142.84579250792726 59.43968533739668 14.273862399711163 H 0.0 **** 0.06
23956 C 32.32516505745622 15.86226453899883 120.2414763424589 C 0.0 **** -0.24
23957 H 33.150111545577204 16.327320455637505 120.78244231454838 H 0.0 **** 0.06
23958 H 31.424973391148626 16.465399213088403 120.3637236886974 H 0.0 **** 0.06
23959 H 32.149940266978945 14.86236329152149 120.63667702740219 H 0.0 **** 0.06
23960 H 32.57814198828106 15.795823857501773 119.18360813424385 H 0.0 **** 0.06
23961 C 101.8539798192561 60.44540515990302 148.95544055515558 C 0.0 **** -0.24
23962 H 102.49512408406079 60.75969630355277 148.13260647201156 H 0.0 **** 0.06
23963 H 101.43447386525801 59.464256440238216 148.7342352561614 H 0.0 **** 0.06
23964 H 101.04587226558925 61.166689338935015 149.08135005467943 H 0.0 **** 0.06
23965 H 102.43972234025179 60.392074307824345 149.87304960615415 H 0.0 **** 0.06
23966 C 145.4900090942151 39.05245189831989 119.05679642902527 C 0.0 **** -0.24
23967 H 145.2424492516559 38.169697609084295 118.46774055072288 H 0.0 **** 0.06
23968 H 144.7463227651154 39.18393509917853 119.84335583288339 H 0.0 **** 0.06
23969 H 145.49650352967973 39.93115374126546 118.41168344954741 H 0.0 **** 0.06
23970 H 146.4748796240126 38.92445866659733 119.50569800054728 H 0.0 **** 0.06
23971 C 69.11106228065668 152.25019817061434 74.91476179302038 C 0.0 **** -0.24
23972 H 68.87013446891069 153.3130819067382 74.8809707691542 H 0.0 **** 0.06
23973 H 70.01071295857852 152.06327369513906 74.3281292294991 H 0.0 **** 0.06
23974 H 68.28191165860778 151.67654864104495 74.50174207152162 H 0.0 **** 0.06
23975 H 69.28129131565072 151.9499955172878 75.9489268250233 H 0.0 **** 0.06
23976 C 98.46145506384224 152.15627704170885 4.205986147437272 C 0.0 **** -0.24
23977 H 99.06685575541354 151.45796302361578 3.628490366364474 H 0.0 **** 0.06
23978 H 98.16862558407612 152.99388879560433 3.572372445919484 H 0.0 **** 0.06
23979 H 99.04052384801031 152.52627186677068 5.052480712504007 H 0.0 **** 0.06
23980 H 97.56925316240557 151.64714825738952 4.571888504222898 H 0.0 **** 0.06
23981 C 85.40923292212679 94.75376553505072 108.77218891535628 C 0.0 **** -0.24
23982 H 86.25025789750948 94.25890115209495 108.28537054832233 H 0.0 **** 0.06
23983 H 85.41717668208993 95.81502622165016 108.52219785608398 H 0.0 **** 0.06
23984 H 85.49272779877606 94.63286963703388 109.85205632907522 H 0.0 **** 0.06
23985 H 84.47699942212212 94.30568497637006 108.42761761029277 H 0.0 **** 0.06
23986 C 59.40793958921603 4.053622872692451 57.834973595396036 C 0.0 **** -0.24
23987 H 59.69807507108277 3.4783788737014163 56.9556001774813 H 0.0 **** 0.06
23988 H 58.32150770272652 4.059501143955238 57.92381650548123 H 0.0 **** 0.06
23989 H 59.76966579967278 5.077096320315341 57.735288531421304 H 0.0 **** 0.06
23990 H 59.842509783382155 3.5995151527978564 58.72518916720031 H 0.0 **** 0.06
23991 C 57.81356509283984 45.97318061591126 80.45657258630126 C 0.0 **** -0.24
23992 H 58.39928274583008 45.5011675490009 79.66700980423785 H 0.0 **** 0.06
23993 H 57.75150057731838 45.30183119770787 81.31342194887097 H 0.0 **** 0.06
23994 H 56.810072021966675 46.18439202605809 80.08699816130975 H 0.0 **** 0.06
23995 H 58.29378843617337 46.904193654199005 80.75697415926753 H 0.0 **** 0.06
23996 C 106.42335457234299 118.28455399241167 80.21597278103708 C 0.0 **** -0.24
23997 H 106.54044182145648 117.66802937854288 79.32396612505488 H 0.0 **** 0.06
23998 H 106.94371054080523 119.23092733709936 80.07321433351481 H 0.0 **** 0.06
23999 H 106.84463568202827 117.76315131372726 81.07554728760982 H 0.0 **** 0.06
24000 H 105.36419410623205 118.473477045185 80.38853876438978 H 0.0 **** 0.06
24001 C 46.17492078910337 17.034418450900603 105.54274604875957 C 0.0 **** -0.24
24002 H 46.013832157747174 16.38335505201303 104.6836425898926 H 0.0 **** 0.06
24003 H 47.221363804792475 16.98792357393353 105.84255276425642 H 0.0 **** 0.06
24004 H 45.5446863269911 16.706465355383273 106.37012696599282 H 0.0 **** 0.06
24005 H 45.91843830464845 18.059556129539146 105.27459992120953 H 0.0 **** 0.06
24006 C 91.71109598447418 80.02485966713179 160.01672754495257 C 0.0 **** -0.24
24007 H 91.36764330955498 80.93034559804909 159.51484967682535 H 0.0 **** 0.06
24008 H 92.70820006054947 79.76890481717898 159.6599203138927 H 0.0 **** 0.06
24009 H 91.02447804653002 79.20663487977114 159.79881731075642 H 0.0 **** 0.06
24010 H 91.74191694137585 80.1966150816779 161.09317170731413 H 0.0 **** 0.06
24011 C 1.2832921517441491 127.33411943519548 130.32736708735544 C 0.0 **** -0.24
24012 H 1.700601706079766 127.72413022490773 129.39970004739143 H 0.0 **** 0.06
24013 H 0.35912462003608425 127.86438816668561 130.56068950412651 H 0.0 **** 0.06
24014 H 1.9994183478428624 127.4780555561926 131.1366411642968 H 0.0 **** 0.06
24015 H 1.0732144664220016 126.27101758048843 130.21276059120808 H 0.0 **** 0.06
24016 C 123.98033406936904 30.260143762816 112.50028819264512 C 0.0 **** -0.24
24017 H 124.71896744188376 31.061747924386395 112.51045527606877 H 0.0 **** 0.06
24018 H 123.0991780869897 30.57214778532989 113.06166552158575 H 0.0 **** 0.06
24019 H 124.4055282975734 29.36752766984705 112.95687462705652 H 0.0 **** 0.06
24020 H 123.69680896944774 30.041356279391437 111.47031030885304 H 0.0 **** 0.06
24021 C 42.63740100865252 119.38716064406412 101.34096515894811 C 0.0 **** -0.24
24022 H 42.54244106170911 118.45662656243832 100.78077429316264 H 0.0 **** 0.06
24023 H 41.85021668389122 120.07721923557895 101.03371786509547 H 0.0 **** 0.06
24024 H 43.61096719659527 119.83339838104962 101.13940474589583 H 0.0 **** 0.06
24025 H 42.54501087329626 119.1812411098521 102.40635288202202 H 0.0 **** 0.06
24026 C 50.502670677375065 108.16580811796052 108.1404215388153 C 0.0 **** -0.24
24027 H 49.615547910667985 108.04489891745749 107.51974531083022 H 0.0 **** 0.06
24028 H 50.27671243033805 107.85658082903444 109.16094405771213 H 0.0 **** 0.06
24029 H 50.8084532667545 109.21227258677663 108.13759409548112 H 0.0 **** 0.06
24030 H 51.30968182374491 107.55008308818731 107.7441469716264 H 0.0 **** 0.06
24031 C 1.1328526393307357 46.7084682628946 73.61187622722915 C 0.0 **** -0.24
24032 H 0.22068835283971566 47.30058687922519 73.68520911378005 H 0.0 **** 0.06
24033 H 1.4118969716555796 46.346330223211055 74.60110478577697 H 0.0 **** 0.06
24034 H 1.9360540343054993 47.32881352629357 73.2115611102305 H 0.0 **** 0.06
24035 H 0.9636359678388544 45.86096260849757 72.94755646736635 H 0.0 **** 0.06
24036 C 120.78425837292363 66.8468187600952 161.2764072074376 C 0.0 **** -0.24
24037 H 121.63777141185366 67.28725000263344 160.75968996378745 H 0.0 **** 0.06
24038 H 120.70199744168903 67.27874567807476 162.27412167186822 H 0.0 **** 0.06
24039 H 120.92645233921237 65.76920159406353 161.35737617229998 H 0.0 **** 0.06
24040 H 119.87440177604225 67.05199435398305 160.71338787453612 H 0.0 **** 0.06
24041 C 57.044342820600775 8.186419902116228 135.82515489732566 C 0.0 **** -0.24
24042 H 56.67145154679531 9.171587842099683 136.1051353976407 H 0.0 **** 0.06
24043 H 58.02708510057016 8.287991318602423 135.3638234120791 H 0.0 **** 0.06
24044 H 56.355363971212086 7.726567984536985 135.11618858245214 H 0.0 **** 0.06
24045 H 57.12252445610706 7.561419548990244 136.7142297079552 H 0.0 **** 0.06
24046 C 48.89906369560036 137.61115461416853 38.34146071142959 C 0.0 **** -0.24
24047 H 49.51058517156811 138.0362594836403 37.546252463298046 H 0.0 **** 0.06
24048 H 49.53791931440011 137.32907308932778 39.17936907081305 H 0.0 **** 0.06
24049 H 48.37878063529614 136.72925734601404 37.96902605595599 H 0.0 **** 0.06
24050 H 48.169403608180616 138.35089862000956 38.673208908457624 H 0.0 **** 0.06
24051 C 23.762853538485103 1.8007493821472096 81.40530545982189 C 0.0 **** -0.24
24052 H 22.806551276935977 1.3399022639762066 81.15937711215494 H 0.0 **** 0.06
24053 H 23.895394621519074 2.7022153352255174 80.80634479450144 H 0.0 **** 0.06
24054 H 24.569606180744472 1.099999518114707 81.19176005468371 H 0.0 **** 0.06
24055 H 23.77880746132456 2.0618223946292176 82.46371711268 H 0.0 **** 0.06
24056 C 96.55104446003244 28.331941017730998 112.36519460727854 C 0.0 **** -0.24
24057 H 97.43951501355045 28.797981149955007 111.93974365723653 H 0.0 **** 0.06
24058 H 95.74374891089677 28.353226195608755 111.63186061143512 H 0.0 **** 0.06
24059 H 96.24673943590848 28.879366007304696 113.2577225970474 H 0.0 **** 0.06
24060 H 96.77385946267839 27.29931317317036 112.63082219910063 H 0.0 **** 0.06
24061 C 42.30004860679816 79.89938427738682 33.802949691900594 C 0.0 **** -0.24
24062 H 41.867041607980354 79.04478874169162 33.28195708134672 H 0.0 **** 0.06
24063 H 41.55940121847968 80.32408323151975 34.48035584151131 H 0.0 **** 0.06
24064 H 42.603544492121785 80.65221575647212 33.07557024286457 H 0.0 **** 0.06
24065 H 43.16990471520319 79.57274321388314 34.373499291331285 H 0.0 **** 0.06
24066 C 68.4860869370953 144.5182337245633 102.87376431247714 C 0.0 **** -0.24
24067 H 68.90422706702263 143.6154892867322 102.42837777328037 H 0.0 **** 0.06
24068 H 68.06333420229015 144.2802380422116 103.84971514548457 H 0.0 **** 0.06
24069 H 67.70469807863859 144.9144475252939 102.22519979406411 H 0.0 **** 0.06
24070 H 69.27357133363543 145.2634549867991 102.98994295954446 H 0.0 **** 0.06
24071 C 152.64449275458736 104.36795845993407 34.63854623701303 C 0.0 **** -0.24
24072 H 153.62875570744635 103.90209409674878 34.68352047754985 H 0.0 **** 0.06
24073 H 151.87625633633854 103.59457485286293 34.65699818614783 H 0.0 **** 0.06
24074 H 152.55759451397606 104.94492374677304 33.718271502684274 H 0.0 **** 0.06
24075 H 152.51662192222406 105.02840174183865 35.49558331073659 H 0.0 **** 0.06
24076 C 124.92697578217587 62.09033003649884 32.8332711926999 C 0.0 **** -0.24
24077 H 125.71260838213107 61.658479833828494 33.45266416479092 H 0.0 **** 0.06
24078 H 124.2494673838853 62.67252448594172 33.45948354468828 H 0.0 **** 0.06
24079 H 124.3712622088272 61.29151649572759 32.341478321801276 H 0.0 **** 0.06
24080 H 125.37349649953893 62.73942833384689 32.080138734436275 H 0.0 **** 0.06
24081 C 31.320335256313996 133.84756943025144 82.16879574962616 C 0.0 **** -0.24
24082 H 30.883909115700135 134.35367476276514 83.03074616372317 H 0.0 **** 0.06
24083 H 31.208919856165323 132.76896504433518 82.28623972869013 H 0.0 **** 0.06
24084 H 32.37866098370719 134.09870547372617 82.09877292470776 H 0.0 **** 0.06
24085 H 30.80998313432997 134.16962099263236 81.26154752905836 H 0.0 **** 0.06
24086 C 129.66229839223615 109.97921221296676 24.25853937518184 C 0.0 **** -0.24
24087 H 128.964021317326 109.9730238539778 25.096511175898286 H 0.0 **** 0.06
24088 H 130.32947737510608 109.12010444278229 24.335869397010754 H 0.0 **** 0.06
24089 H 130.24814285675154 110.89715806868418 24.28061813569522 H 0.0 **** 0.06
24090 H 129.10652210763635 109.92497207618376 23.322346237779527 H 0.0 **** 0.06
24091 C 31.011808097120536 128.63541872498942 57.990790257882 C 0.0 **** -0.24
24092 H 30.69800596322216 128.9049779149765 56.98297138454507 H 0.0 **** 0.06
24093 H 31.52709400417632 127.67504538996687 57.96626766817411 H 0.0 **** 0.06
24094 H 30.135663551012044 128.5609410492193 58.6357621162727 H 0.0 **** 0.06
24095 H 31.68442708167032 129.40016594577423 58.37889106828155 H 0.0 **** 0.06
24096 C 119.24352366671954 133.2946659535442 97.65339887796048 C 0.0 **** -0.24
24097 H 119.35357598624537 132.58218506488373 98.47219090790378 H 0.0 **** 0.06
24098 H 119.71171905302094 134.24021695879412 97.92960220284505 H 0.0 **** 0.06
24099 H 118.18474997693463 133.45691735160926 97.45441501446842 H 0.0 **** 0.06
24100 H 119.72568381668782 132.89736638751396 96.76011084705675 H 0.0 **** 0.06
24101 C 1.4588335986834409 94.99549478659056 134.0781099433265 C 0.0 **** -0.24
24102 H 1.1648030294763885 95.90946750649361 134.59392845841734 H 0.0 **** 0.06
24103 H 0.599168406320473 94.58545768245021 133.54773724732138 H 0.0 **** 0.06
24104 H 1.8191431762204502 94.26755191296188 134.80470269284754 H 0.0 **** 0.06
24105 H 2.2519297775021414 95.21986144841507 133.36412539257964 H 0.0 **** 0.06
24106 C 114.00315357600843 91.5811348419519 38.224095970975554 C 0.0 **** -0.24
24107 H 114.46714831735787 90.92843676483528 37.485055418999195 H 0.0 **** 0.06
24108 H 114.50670186635676 92.54829467938025 38.22240777504817 H 0.0 **** 0.06
24109 H 114.0869648568065 91.12918322447844 39.212454337980205 H 0.0 **** 0.06
24110 H 112.94972515968479 91.71941042524392 37.97618196013832 H 0.0 **** 0.06
24111 C 101.62501216465967 113.90092316596596 34.1110249425292 C 0.0 **** -0.24
24112 H 102.65310405856292 113.75612788700812 33.777889436455794 H 0.0 **** 0.06
24113 H 101.13733503951403 112.93223814617008 34.21589239226495 H 0.0 **** 0.06
24114 H 101.0871949340119 114.5012090118924 33.377554173213255 H 0.0 **** 0.06
24115 H 101.6245510237494 114.41473296129487 35.07252436995469 H 0.0 **** 0.06
24116 C 54.39927357903116 10.52633265528317 51.43685540130302 C 0.0 **** -0.24
24117 H 53.673445873781645 9.971557948139392 52.03034422522026 H 0.0 **** 0.06
24118 H 54.93254618939196 9.838465351948031 50.77963109128508 H 0.0 **** 0.06
24119 H 55.109290444775425 11.020083997197283 52.09974188887571 H 0.0 **** 0.06
24120 H 53.88128559872531 11.274901769400472 50.83643169927265 H 0.0 **** 0.06
24121 C 125.48941146009466 61.569110090540704 158.90415724638686 C 0.0 **** -0.24
24122 H 124.78760979513777 61.70299072138209 158.08092140070912 H 0.0 **** 0.06
24123 H 126.50835932771429 61.686348579804246 158.53515556967378 H 0.0 **** 0.06
24124 H 125.36816116902963 60.57241264617926 159.32746139570762 H 0.0 **** 0.06
24125 H 125.29254398330974 62.31670128192374 159.67302295913203 H 0.0 **** 0.06
24126 C 60.60076101666789 4.154240149115481 48.95871548417561 C 0.0 **** -0.24
24127 H 59.927009168173726 4.411355212654314 49.776321232404726 H 0.0 **** 0.06
24128 H 61.630757138302386 4.331114888465095 49.267127785391054 H 0.0 **** 0.06
24129 H 60.369964318686286 4.77091078853897 48.090907315005154 H 0.0 **** 0.06
24130 H 60.4740269718359 3.10190441883384 48.70123946826122 H 0.0 **** 0.06
24131 C 91.31291211714057 1.3623390254008996 4.445291551047525 C 0.0 **** -0.24
24132 H 91.08485788275826 1.7130943961274454 5.4517018977197935 H 0.0 **** 0.06
24133 H 91.88329224492449 0.43521036429532955 4.50445928328724 H 0.0 **** 0.06
24134 H 91.89807509870772 2.1175975616944527 3.92173768639897 H 0.0 **** 0.06
24135 H 90.38270205734142 1.1838393745055669 3.9048315526903394 H 0.0 **** 0.06
24136 C 39.17000178866971 150.04289333906752 138.81664041839994 C 0.0 **** -0.24
24137 H 39.08130235478643 150.92200731070426 139.4556724367249 H 0.0 **** 0.06
24138 H 39.564668344701914 149.20931498195287 139.39917483292191 H 0.0 **** 0.06
24139 H 39.84573356989847 150.26114118504105 137.99004542963834 H 0.0 **** 0.06
24140 H 38.188637552432795 149.7789860055666 138.42409236748625 H 0.0 **** 0.06
24141 C 122.09696329112631 22.985758157336647 83.84032729653063 C 0.0 **** -0.24
24142 H 122.52476150427032 23.988003954299757 83.82275178522615 H 0.0 **** 0.06
24143 H 121.72353967152699 22.7669575658916 84.8401297379433 H 0.0 **** 0.06
24144 H 122.86467283519977 22.259463204093862 83.57118125894063 H 0.0 **** 0.06
24145 H 121.27646867037896 22.928649130767724 83.12470238982638 H 0.0 **** 0.06
24146 C 84.12002721346346 161.99012643561008 17.750356729748155 C 0.0 **** -0.24
24147 H 84.16529013664041 162.65711228531234 18.611198176186363 H 0.0 **** 0.06
24148 H 83.48275699186486 161.13672465805087 17.98536943792979 H 0.0 **** 0.06
24149 H 85.12289601375983 161.63933003550477 17.50854505495856 H 0.0 **** 0.06
24150 H 83.70680209738482 162.52675136001193 16.89605258977089 H 0.0 **** 0.06
24151 C 7.1425093404045015 109.90698744458481 17.777628554630496 C 0.0 **** -0.24
24152 H 8.055499954433174 110.47973914882144 17.615475930570142 H 0.0 **** 0.06
24153 H 7.189791217157648 108.97844275180344 17.20801898905296 H 0.0 **** 0.06
24154 H 6.283886065903772 110.49227111305066 17.448797366407234 H 0.0 **** 0.06
24155 H 7.040740003135994 109.67835033616512 18.838728900755655 H 0.0 **** 0.06
24156 C 49.757163299562535 87.15043198179953 122.10256285546416 C 0.0 **** -0.24
24157 H 50.28048230306479 86.38772283324379 121.52693294306246 H 0.0 **** 0.06
24158 H 49.15175288513842 86.67268753010384 122.87328417029215 H 0.0 **** 0.06
24159 H 49.113139430964225 87.72746196193957 121.43953609020832 H 0.0 **** 0.06
24160 H 50.48392351556396 87.81440307056192 122.57103147732215 H 0.0 **** 0.06
24161 C 143.40925583911945 149.96740710019535 131.37669844580162 C 0.0 **** -0.24
24162 H 143.58377023482137 149.87670523090114 132.4482887214561 H 0.0 **** 0.06
24163 H 142.4035739432847 150.3509589640796 131.20333823732756 H 0.0 **** 0.06
24164 H 143.51211666848894 148.98948287879182 130.90724269834678 H 0.0 **** 0.06
24165 H 144.1384637579195 150.65423383031845 130.9468674165482 H 0.0 **** 0.06
24166 C 5.436148990659774 18.86148003526229 127.4216591541157 C 0.0 **** -0.24
24167 H 5.570027871450236 19.92817546552068 127.24297746001102 H 0.0 **** 0.06
24168 H 4.923931334784413 18.71292380236155 128.37282318107032 H 0.0 **** 0.06
24169 H 6.4096248438488885 18.372447304978735 127.45279752415567 H 0.0 **** 0.06
24170 H 4.839469050376493 18.430908036717206 126.61682520150555 H 0.0 **** 0.06
24171 C 160.36036654558654 134.9114594633788 84.49788163672135 C 0.0 **** -0.24
24172 H 161.03116358274707 134.66606289175868 85.32146267383841 H 0.0 **** 0.06
24173 H 160.89990597985633 134.83215622250205 83.55398648489918 H 0.0 **** 0.06
24174 H 159.99139715350418 135.93022477941744 84.62212219103097 H 0.0 **** 0.06
24175 H 159.52020976328447 134.21832528185368 84.4963359662787 H 0.0 **** 0.06
24176 C 125.495135535428 62.546337213137406 152.61143543712197 C 0.0 **** -0.24
24177 H 124.9402920859934 62.63759687518706 153.5451577052694 H 0.0 **** 0.06
24178 H 124.85356650255167 62.8322058744842 151.77792890487726 H 0.0 **** 0.06
24179 H 125.82202638922834 61.515093116193896 152.48185222717342 H 0.0 **** 0.06
24180 H 126.36551258195533 63.20239893364328 152.6414969582486 H 0.0 **** 0.06
24181 C 27.511518935953433 28.391385176090857 92.11798418852891 C 0.0 **** -0.24
24182 H 26.710551373230118 27.736006003048267 91.77565399163836 H 0.0 **** 0.06
24183 H 28.47344042636078 27.983759658282267 91.8070543889985 H 0.0 **** 0.06
24184 H 27.481627317247728 28.463435913840414 93.20500075960058 H 0.0 **** 0.06
24185 H 27.379880246052352 29.382856617162815 91.6848600863384 H 0.0 **** 0.06
24186 C 38.098421145649354 121.40434801821894 144.77024869572904 C 0.0 **** -0.24
24187 H 37.30608810016889 121.06226795413846 145.43610636292198 H 0.0 **** 0.06
24188 H 37.98311607765413 120.93077772818944 143.79557656576193 H 0.0 **** 0.06
24189 H 39.06673740723659 121.13681827683186 145.19275112092654 H 0.0 **** 0.06
24190 H 38.03616767361984 122.48727419233197 144.65946834580814 H 0.0 **** 0.06
24191 C 136.47116949517743 110.54449992528231 70.07974107723302 C 0.0 **** -0.24
24192 H 135.8588693680249 109.82473421844219 69.53597572882137 H 0.0 **** 0.06
24193 H 136.41183017544904 110.337494990252 71.14856878922151 H 0.0 **** 0.06
24194 H 136.1059033413784 111.55268006980242 69.88443801632081 H 0.0 **** 0.06
24195 H 137.5067192686804 110.46339583178064 69.75024353453126 H 0.0 **** 0.06
24196 C 116.73593966787683 51.93860664617654 29.253750306020414 C 0.0 **** -0.24
24197 H 117.22944924894017 52.518873389789505 30.03409874668168 H 0.0 **** 0.06
24198 H 117.0222751691094 52.327551888514336 28.276781307526164 H 0.0 **** 0.06
24199 H 115.65471844861293 52.01535761632776 29.372963773715654 H 0.0 **** 0.06
24200 H 117.03672072285639 50.893884743521966 29.33220894468709 H 0.0 **** 0.06
24201 C 77.6636810247708 152.11638542708866 73.03738016972834 C 0.0 **** -0.24
24202 H 76.96925786604473 151.83816953970947 73.82968454972469 H 0.0 **** 0.06
24203 H 78.6698485435364 152.2019697873636 73.44868798705441 H 0.0 **** 0.06
24204 H 77.36393465025444 153.07295675814296 72.60986965338478 H 0.0 **** 0.06
24205 H 77.65284215976023 151.3518594496113 72.26071911356904 H 0.0 **** 0.06
24206 C 48.79039406444802 101.41476920003345 26.762494240570064 C 0.0 **** -0.24
24207 H 49.28678011773948 100.54666821546317 27.19689548449302 H 0.0 **** 0.06
24208 H 48.55256282166347 102.13030888058336 27.550138923694213 H 0.0 **** 0.06
24209 H 47.8716069629115 101.09904894651152 26.26791477252882 H 0.0 **** 0.06
24210 H 49.45252931993254 101.88353280769559 26.03395703188891 H 0.0 **** 0.06
24211 C 95.74052300372199 83.13545699495285 55.50909080585734 C 0.0 **** -0.24
24212 H 96.35436894705214 83.44045901943132 56.356685510469106 H 0.0 **** 0.06
24213 H 96.36772855784591 82.65051286109961 54.760888130272235 H 0.0 **** 0.06
24214 H 95.26623400341725 84.0137265915776 55.0709762999804 H 0.0 **** 0.06
24215 H 94.97382300198308 82.43881573040026 55.84820422756212 H 0.0 **** 0.06
24216 C 25.00852915320479 81.62763988303129 48.40152115339072 C 0.0 **** -0.24
24217 H 25.05355372651536 80.53882702725694 48.38068356804925 H 0.0 **** 0.06
24218 H 25.877366905055794 82.01663417974065 48.93104472074248 H 0.0 **** 0.06
24219 H 24.098862129689138 81.9433219118624 48.91280447281413 H 0.0 **** 0.06
24220 H 25.0034763547485 82.00972915200958 47.38051570445191 H 0.0 **** 0.06
24221 C 72.70546504546617 27.077896260544257 137.71854338353108 C 0.0 **** -0.24
24222 H 71.85394720849122 26.868329220666297 138.36632567777195 H 0.0 **** 0.06
24223 H 73.48457643751782 26.334434320576932 137.89041157231844 H 0.0 **** 0.06
24224 H 73.09587228205811 28.071190111849397 137.94173476665605 H 0.0 **** 0.06
24225 H 72.38843294393868 27.03839145092777 136.6769197275177 H 0.0 **** 0.06
24226 C 70.44399904249323 95.33906840837743 71.83458614876827 C 0.0 **** -0.24
24227 H 69.64632020633798 95.45886458775482 72.56709292600945 H 0.0 **** 0.06
24228 H 70.11830770920764 94.65180969086808 71.05249502504768 H 0.0 **** 0.06
24229 H 71.33183020730128 94.93891528049258 72.32485869747154 H 0.0 **** 0.06
24230 H 70.67908894922827 96.30767509536197 71.39194440119789 H 0.0 **** 0.06
24231 C 133.84936018875976 89.74758172480351 99.0454719783038 C 0.0 **** -0.24
24232 H 132.82471690392495 89.97952890162308 99.33554178683045 H 0.0 **** 0.06
24233 H 134.11093383211056 90.31758282783947 98.15301308348722 H 0.0 **** 0.06
24234 H 133.93348286336015 88.68197541040415 98.83355124741362 H 0.0 **** 0.06
24235 H 134.52583044668398 90.01173224517758 99.85702067379896 H 0.0 **** 0.06
24236 C 38.47099008915154 117.53313631046908 82.89337861681186 C 0.0 **** -0.24
24237 H 38.20374951784878 116.65780134071946 82.30119872029621 H 0.0 **** 0.06
24238 H 38.2423196806443 118.43693440668025 82.32844702174995 H 0.0 **** 0.06
24239 H 39.53704158095921 117.50580158740115 83.11975197295365 H 0.0 **** 0.06
24240 H 37.90255339371342 117.53006280972374 83.82297052065472 H 0.0 **** 0.06
24241 C 106.82645780444761 145.87424288545802 78.56798136139476 C 0.0 **** -0.24
24242 H 106.32447335050597 146.70930132699476 79.05691680823386 H 0.0 **** 0.06
24243 H 106.93445551479678 145.05140503847136 79.27466957340188 H 0.0 **** 0.06
24244 H 107.8110119539248 146.19250113828588 78.22634464719818 H 0.0 **** 0.06
24245 H 106.23400159776293 145.5453112816452 77.71379782078803 H 0.0 **** 0.06
24246 C 13.677655329056876 8.769244356618458 1.4902231514614073 C 0.0 **** -0.24
24247 H 12.754897688974125 8.68940661082695 0.9146276684826944 H 0.0 **** 0.06
24248 H 13.516214011363274 9.428721685575738 2.3438555410248796 H 0.0 **** 0.06
24249 H 14.465361115234941 9.178208679521276 0.8573213906821024 H 0.0 **** 0.06
24250 H 13.97121665397026 7.781232382128223 1.844855274821299 H 0.0 **** 0.06
24251 C 143.69799732211652 111.9977212759971 32.308864980881026 C 0.0 **** -0.24
24252 H 143.01041005418008 111.87863376278071 33.145616879108616 H 0.0 **** 0.06
24253 H 143.2202800910669 112.5905327933724 31.52844994669789 H 0.0 **** 0.06
24254 H 143.96109870794245 111.01780443216035 31.911566010562353 H 0.0 **** 0.06
24255 H 144.60045247579652 112.50609697549055 32.649412660439566 H 0.0 **** 0.06
24256 C 38.91814196389724 161.68340721629 97.15387016129475 C 0.0 **** -0.24
24257 H 38.24847069388271 161.4281088521411 97.97489877218484 H 0.0 **** 0.06
24258 H 39.59703057172149 160.85053100506053 96.96594894188678 H 0.0 **** 0.06
24259 H 39.494430829988715 162.5700184935544 97.41749381195908 H 0.0 **** 0.06
24260 H 38.33232094857455 161.88406868830134 96.25684308937012 H 0.0 **** 0.06
24261 C 113.85900672969353 150.53443454135925 5.355087906624448 C 0.0 **** -0.24
24262 H 113.55387614946892 150.7683006576823 4.334703738232889 H 0.0 **** 0.06
24263 H 112.97815617761194 150.49044375225878 5.995811699733565 H 0.0 **** 0.06
24264 H 114.53450362714966 151.309034229063 5.718725273023921 H 0.0 **** 0.06
24265 H 114.36789022499323 149.57146751433504 5.369332194950516 H 0.0 **** 0.06
24266 C 27.132088250827763 115.87382291883227 24.216318740508655 C 0.0 **** -0.24
24267 H 27.53121563680608 115.43620338603648 23.301371569713183 H 0.0 **** 0.06
24268 H 26.786009617486542 115.07812999911025 24.877100289921174 H 0.0 **** 0.06
24269 H 26.29792886644526 116.53103670320334 23.97120241937003 H 0.0 **** 0.06
24270 H 27.913730468913258 116.44720851415181 24.715003277607934 H 0.0 **** 0.06
24271 C 133.9177810936502 129.2346392712957 156.68066955014916 C 0.0 **** -0.24
24272 H 134.40632853073276 129.45774338137136 155.7320743681729 H 0.0 **** 0.06
24273 H 134.37495220893746 129.82941541468477 157.4731358566441 H 0.0 **** 0.06
24274 H 134.03415529522204 128.1752719283474 156.90888814554017 H 0.0 **** 0.06
24275 H 132.8586682183868 129.47708612536687 156.6096750502989 H 0.0 **** 0.06
24276 C 118.42718877123201 34.4141408652205 155.94191835152412 C 0.0 **** -0.24
24277 H 118.82615701032242 33.841783237057825 156.77893204508945 H 0.0 **** 0.06
24278 H 119.14302654534328 34.40353678310527 155.1201351177494 H 0.0 **** 0.06
24279 H 118.25009509286713 35.442873350301625 156.25660577833736 H 0.0 **** 0.06
24280 H 117.48816855127018 33.96839957519094 155.61253770556274 H 0.0 **** 0.06
24281 C 144.38831337021958 6.731814043583313 150.2506596764933 C 0.0 **** -0.24
24282 H 144.71719548304054 7.674235056149264 149.81396296900044 H 0.0 **** 0.06
24283 H 144.28147101843837 5.984578530012392 149.4629549602447 H 0.0 **** 0.06
24284 H 143.43012713860657 6.876859928412877 150.74803443020397 H 0.0 **** 0.06
24285 H 145.12689870157556 6.390985247659231 150.9760446009637 H 0.0 **** 0.06
24286 C 48.718948024817806 23.33393862295449 58.207576383478354 C 0.0 **** -0.24
24287 H 48.834490540190345 23.72380549021466 57.19582362926846 H 0.0 **** 0.06
24288 H 49.62858494278146 23.524253241950944 58.77651386373955 H 0.0 **** 0.06
24289 H 48.53499331976518 22.260365523823125 58.163266891779074 H 0.0 **** 0.06
24290 H 47.87653144706668 23.826707113939335 58.691839066710344 H 0.0 **** 0.06
24291 C 65.62802683475168 59.36913043983458 30.192377425673698 C 0.0 **** -0.24
24292 H 64.74757218351492 60.01165112837694 30.175715069407765 H 0.0 **** 0.06
24293 H 66.42829140049224 59.86355787205099 30.743088781005426 H 0.0 **** 0.06
24294 H 65.9552047374923 59.17615264099632 29.170696435591793 H 0.0 **** 0.06
24295 H 65.3802873984519 58.42600063074525 30.679155796553708 H 0.0 **** 0.06
24296 C 140.4177372209757 129.14018768837937 76.30420265568695 C 0.0 **** -0.24
24297 H 141.29733909230563 129.7773561038364 76.20768404988611 H 0.0 **** 0.06
24298 H 140.2604329496785 128.89553332207012 77.3555520355437 H 0.0 **** 0.06
24299 H 140.5692337321355 128.22259235603366 75.73634136290069 H 0.0 **** 0.06
24300 H 139.54437655926196 129.66684870000506 75.91905437202422 H 0.0 **** 0.06
24301 C 3.1700038345743167 115.42693471840786 20.643287571320137 C 0.0 **** -0.24
24302 H 2.6572967403015326 116.15434117839595 20.014574514188155 H 0.0 **** 0.06
24303 H 2.5110370379468847 115.12292784058144 21.457381223445054 H 0.0 **** 0.06
24304 H 4.073223420712239 115.87591079818012 21.055049249511676 H 0.0 **** 0.06
24305 H 3.436053504275378 114.55458803459533 20.046611207538113 H 0.0 **** 0.06
24306 C 10.68927436002263 103.97873270964936 119.93337984166445 C 0.0 **** -0.24
24307 H 11.42835518549461 104.40418098733949 120.61168001804003 H 0.0 **** 0.06
24308 H 9.687926927392695 104.1696622750178 120.32100480916111 H 0.0 **** 0.06
24309 H 10.848853514484162 102.90287305418718 119.85317766315643 H 0.0 **** 0.06
24310 H 10.79204869306077 104.43615738143251 118.94983882402954 H 0.0 **** 0.06
24311 C 92.77877222415 34.34188730394959 156.8054312294716 C 0.0 **** -0.24
24312 H 92.15788000789297 34.04417143739482 155.96072124275173 H 0.0 **** 0.06
24313 H 92.79587361442182 35.42914329887617 156.87980054590918 H 0.0 **** 0.06
24314 H 93.79413510168769 33.971218086274064 156.65796776187898 H 0.0 **** 0.06
24315 H 92.36901071894636 33.92023818015309 157.72329689676997 H 0.0 **** 0.06
24316 C 74.243135494716 106.62421510293873 35.29249072111379 C 0.0 **** -0.24
24317 H 73.42023318644277 106.31561473399753 34.64728573273263 H 0.0 **** 0.06
24318 H 74.02129638406308 107.6023048565375 35.72081505613234 H 0.0 **** 0.06
24319 H 75.16149820154266 106.68259894219324 34.70822355287385 H 0.0 **** 0.06
24320 H 74.36870337287246 105.89633417085105 36.09422379401367 H 0.0 **** 0.06
24321 C 27.836716661437606 35.561102702625675 42.07088300728327 C 0.0 **** -0.24
24322 H 27.602265350546617 35.51635814458342 41.007157302642554 H 0.0 **** 0.06
24323 H 27.740123001621754 36.589604786041804 42.41963507609563 H 0.0 **** 0.06
24324 H 28.858153066704546 35.21662134965348 42.23249093963864 H 0.0 **** 0.06
24325 H 27.146960872869613 34.92266343022152 42.622274957107095 H 0.0 **** 0.06
24326 C 31.776164890172794 158.76936193288745 133.0287397532084 C 0.0 **** -0.24
24327 H 31.412213946352978 157.84601865949386 133.47832816189867 H 0.0 **** 0.06
24328 H 30.928718632228055 159.3794722387482 132.7150804938227 H 0.0 **** 0.06
24329 H 32.39456522391072 158.5322921583173 132.16218863049636 H 0.0 **** 0.06
24330 H 32.36984029280174 159.3193536837208 133.75869621523077 H 0.0 **** 0.06
24331 C 143.04888731816607 119.82179647205555 120.01924576870775 C 0.0 **** -0.24
24332 H 143.92286757094647 120.45566468479126 119.86912426960362 H 0.0 **** 0.06
24333 H 143.3702639232366 118.83264962308834 120.34510837490913 H 0.0 **** 0.06
24334 H 142.49886054767225 119.7352266934056 119.0824415913593 H 0.0 **** 0.06
24335 H 142.40625313731223 120.26475276503189 120.77959822945186 H 0.0 **** 0.06
24336 C 93.28178817102474 19.108129049883225 61.52560845195603 C 0.0 **** -0.24
24337 H 93.29246063584588 18.074361251863287 61.87151176841991 H 0.0 **** 0.06
24338 H 94.22517082284031 19.58779333344892 61.783213095020415 H 0.0 **** 0.06
24339 H 92.45990148900358 19.641481850172497 62.003602111400596 H 0.0 **** 0.06
24340 H 93.14612581658605 19.127565033147583 60.4438530034148 H 0.0 **** 0.06
24341 C 44.295035686298604 56.727231372837565 158.59556518136452 C 0.0 **** -0.24
24342 H 44.59078681489916 57.06802181004592 157.60256666648854 H 0.0 **** 0.06
24343 H 43.76339399214385 57.52703036412359 159.11074236177404 H 0.0 **** 0.06
24344 H 45.18402466874187 56.456038883600456 159.1651054191223 H 0.0 **** 0.06
24345 H 43.64459956190791 55.85871572142376 158.50158002064478 H 0.0 **** 0.06
24346 C 133.71208257732354 150.97725358520722 161.33979112294037 C 0.0 **** -0.24
24347 H 132.66894608726327 150.74189861722215 161.12822514363296 H 0.0 **** 0.06
24348 H 134.20586029827413 150.09848511866667 161.75641258942832 H 0.0 **** 0.06
24349 H 133.76070857379094 151.79608086779146 162.05762066417182 H 0.0 **** 0.06
24350 H 134.21254246037486 151.27256717324215 160.41829364186592 H 0.0 **** 0.06
24351 C 102.8550146831476 13.232705837381275 33.18325360846643 C 0.0 **** -0.24
24352 H 101.98062614693504 13.871533183213813 33.30352886061053 H 0.0 **** 0.06
24353 H 103.53138118128084 13.380877178892803 34.024592686833444 H 0.0 **** 0.06
24354 H 103.3673782795729 13.489226534180176 32.25567689915286 H 0.0 **** 0.06
24355 H 102.54084217497069 12.18962904281753 33.14833532462944 H 0.0 **** 0.06
24356 C 151.9316858432839 36.16782849915006 139.32329915487634 C 0.0 **** -0.24
24357 H 152.63659972272302 35.75796244259652 138.60121810705547 H 0.0 **** 0.06
24358 H 150.92382390320722 36.132589775569045 138.9073046144443 H 0.0 **** 0.06
24359 H 152.1971898574066 37.20222805189064 139.54395742404893 H 0.0 **** 0.06
24360 H 151.96737697483232 35.58021652658704 140.24040719379855 H 0.0 **** 0.06
24361 C 156.12027827265578 120.25592697057198 47.217464451443675 C 0.0 **** -0.24
24362 H 156.79870857130229 119.79847354040612 47.93826232502016 H 0.0 **** 0.06
24363 H 155.24268062799624 120.6395713641349 47.73840708608708 H 0.0 **** 0.06
24364 H 155.81146372013632 119.50937736707033 46.48618947008055 H 0.0 **** 0.06
24365 H 156.62887475110315 121.07437479535594 46.70840293933736 H 0.0 **** 0.06
24366 C 98.45582773557874 108.66214454150946 103.76667499876746 C 0.0 **** -0.24
24367 H 98.10104918495685 108.06438689370276 104.60586914203478 H 0.0 **** 0.06
24368 H 99.37416183840256 109.17640322675243 104.04963140699715 H 0.0 **** 0.06
24369 H 97.69625383680918 109.39529668390207 103.49613429779794 H 0.0 **** 0.06
24370 H 98.65224995601574 108.01008488236414 102.91527944774063 H 0.0 **** 0.06
24371 C 21.09794660996009 32.04605041126419 84.35234989954256 C 0.0 **** -0.24
24372 H 20.819631038675737 30.991868985861366 84.36963717336303 H 0.0 **** 0.06
24373 H 21.928160890185303 32.21336574747473 85.03894417564567 H 0.0 **** 0.06
24374 H 20.244849747877836 32.65120054015239 84.65806365682374 H 0.0 **** 0.06
24375 H 21.399358264183945 32.325544841594734 83.3426154062587 H 0.0 **** 0.06
24376 C 43.97959352708392 161.83694841144717 136.46030235400886 C 0.0 **** -0.24
24377 H 44.84867105131019 161.91946011495372 135.80728401988964 H 0.0 **** 0.06
24378 H 43.860458124861054 160.8010128980934 136.77825554948043 H 0.0 **** 0.06
24379 H 43.08771469497941 162.1561279418919 135.92020749199497 H 0.0 **** 0.06
24380 H 44.12110134045247 162.47202586439022 137.33511321340333 H 0.0 **** 0.06
24381 C 74.04960890332845 51.266397481903695 17.72519978261471 C 0.0 **** -0.24
24382 H 74.765826498048 51.26581282650007 16.902419783824257 H 0.0 **** 0.06
24383 H 73.34306796292347 50.44788335756259 17.59191681929235 H 0.0 **** 0.06
24384 H 73.51117265829876 52.21357376977308 17.736394328964423 H 0.0 **** 0.06
24385 H 74.58074493704996 51.13889852311962 18.6683309387775 H 0.0 **** 0.06
24386 C 110.74868893715256 61.37250081405686 95.78589087038979 C 0.0 **** -0.24
24387 H 110.94497385934062 60.47382520635354 95.20178538857303 H 0.0 **** 0.06
24388 H 111.09153633610296 62.24727360433056 95.23239280046295 H 0.0 **** 0.06
24389 H 111.28096450534116 61.31173014248894 96.73520351856891 H 0.0 **** 0.06
24390 H 109.67816660181467 61.45688979533031 95.97381451428112 H 0.0 **** 0.06
24391 C 138.2477418795109 18.17968747516815 85.422658720177 C 0.0 **** -0.24
24392 H 138.42809613129268 17.26707985251798 85.98963269555512 H 0.0 **** 0.06
24393 H 138.28983305695212 19.038565400448363 86.09399690588745 H 0.0 **** 0.06
24394 H 137.26301472838227 18.13004650293334 84.95754574565106 H 0.0 **** 0.06
24395 H 139.00984433037672 18.284407420443017 84.64984343128333 H 0.0 **** 0.06
24396 C 34.14444812635233 92.97391184908446 57.36918537836172 C 0.0 **** -0.24
24397 H 33.784312380505085 92.27082471820313 58.11997134985367 H 0.0 **** 0.06
24398 H 33.61689899158874 93.92081978545089 57.47589560690135 H 0.0 **** 0.06
24399 H 33.96363228739061 92.56557550879879 56.37452616941512 H 0.0 **** 0.06
24400 H 35.2138755368329 93.13482128379472 57.50597729615495 H 0.0 **** 0.06
24401 C 69.0650119232458 83.09207142106177 32.336251592801176 C 0.0 **** -0.24
24402 H 69.25915197053217 82.79598873856563 31.305720894404658 H 0.0 **** 0.06
24403 H 69.74607795475012 83.89586340727836 32.618417152754176 H 0.0 **** 0.06
24404 H 69.2183177118344 82.23642528640612 32.99430546629014 H 0.0 **** 0.06
24405 H 68.03547100249169 83.43934627501643 32.42585370615794 H 0.0 **** 0.06
24406 C 114.20823110331321 102.29592879419283 104.92299462938985 C 0.0 **** -0.24
24407 H 113.51691798503691 102.70140749076879 105.66235589533426 H 0.0 **** 0.06
24408 H 114.31276720458516 103.0024306498697 104.09777933844106 H 0.0 **** 0.06
24409 H 113.8220187592774 101.34983692190698 104.54381255148513 H 0.0 **** 0.06
24410 H 115.18081733953812 102.13273730579854 105.38678056446014 H 0.0 **** 0.06
24411 C 24.17234532597479 46.93342496854348 131.88621872736422 C 0.0 **** -0.24
24412 H 24.17484419857803 47.04236777586436 130.80143529635015 H 0.0 **** 0.06
24413 H 23.46942317119661 46.15017956116293 132.17095711351297 H 0.0 **** 0.06
24414 H 23.872677750998946 47.875498395285035 132.3451935140127 H 0.0 **** 0.06
24415 H 25.17243618312571 46.66565414186164 132.22728898558103 H 0.0 **** 0.06
24416 C 151.57012559339242 102.47940508430153 64.33138142072738 C 0.0 **** -0.24
24417 H 151.55777201063498 103.07528566711522 63.418399714538396 H 0.0 **** 0.06
24418 H 152.60279429619192 102.29149255495739 64.62750491995848 H 0.0 **** 0.06
24419 H 151.0636079351405 101.53140974708447 64.15276582809321 H 0.0 **** 0.06
24420 H 151.0575523512647 103.02275370355218 65.12564260363831 H 0.0 **** 0.06
24421 C 149.5499226162078 0.24032101000549488 104.18119290154951 C 0.0 **** -0.24
24422 H 149.1602281415675 1.2505698535906902 104.30963110572796 H 0.0 **** 0.06
24423 H 149.37976656380053 -0.3325023825942921 105.09259902602037 H 0.0 **** 0.06
24424 H 150.61903550543474 0.28814442238689963 103.97500755250354 H 0.0 **** 0.06
24425 H 149.04077829794065 -0.2419957187832793 103.34691028417342 H 0.0 **** 0.06
24426 C 65.63255036414355 138.31136089858467 138.08378349359407 C 0.0 **** -0.24
24427 H 66.43957942951728 138.08817622185268 137.3846793550805 H 0.0 **** 0.06
24428 H 65.95082380156869 138.0606084731869 139.09624343390328 H 0.0 **** 0.06
24429 H 64.7524795203753 137.72295139558236 137.82287844505578 H 0.0 **** 0.06
24430 H 65.38967675611133 139.37239511019615 138.03048571012738 H 0.0 **** 0.06
24431 C 64.93962566639729 28.0968135620528 105.14397189118267 C 0.0 **** -0.24
24432 H 65.55779535581125 28.993033082871506 105.07966245914292 H 0.0 **** 0.06
24433 H 65.14075020373632 27.584139384964715 106.0847736627253 H 0.0 **** 0.06
24434 H 65.17261457482964 27.43381728030971 104.31063284800967 H 0.0 **** 0.06
24435 H 63.88777277375483 28.378664894617486 105.10058799037017 H 0.0 **** 0.06
24436 C 15.86498805439377 152.62411816484274 98.96829899884142 C 0.0 **** -0.24
24437 H 15.727316350742598 151.55118815212262 98.83164773846167 H 0.0 **** 0.06
24438 H 16.371884191325314 153.0380941170538 98.09685762845194 H 0.0 **** 0.06
24439 H 16.46863073016987 152.8020682968601 99.85860464539883 H 0.0 **** 0.06
24440 H 14.893210562092825 153.10292850558636 99.08605298004838 H 0.0 **** 0.06
24441 C 3.2839480765464657 20.121289046155397 102.39936791297083 C 0.0 **** -0.24
24442 H 3.8029002635167615 20.792864079849693 103.0834479253441 H 0.0 **** 0.06
24443 H 2.534815620357847 20.68248512526327 101.83920058539368 H 0.0 **** 0.06
24444 H 2.796198082415202 19.329786977642442 102.9669330867566 H 0.0 **** 0.06
24445 H 4.002393885304343 19.68285179766633 101.70624218380533 H 0.0 **** 0.06
24446 C 74.35789778918739 71.22920330036999 21.319630105803576 C 0.0 **** -0.24
24447 H 74.67574606271442 72.093655043304 20.73590282065979 H 0.0 **** 0.06
24448 H 75.23427384141553 70.66422116771757 21.63704160115664 H 0.0 **** 0.06
24449 H 73.7165437900282 70.59467228488887 20.709402082056506 H 0.0 **** 0.06
24450 H 73.80571442555467 71.56786684017625 22.196917646900992 H 0.0 **** 0.06
24451 C 54.513998446505525 11.676557401654776 111.82330533848386 C 0.0 **** -0.24
24452 H 55.31508003806765 12.191700854399073 111.29302204742174 H 0.0 **** 0.06
24453 H 54.131990368847156 12.318012105689263 112.6173875400967 H 0.0 **** 0.06
24454 H 54.89955335025435 10.75329208407976 112.25540418801728 H 0.0 **** 0.06
24455 H 53.70886406369439 11.443108261863443 111.1265528833591 H 0.0 **** 0.06
24456 C 41.58615260420281 87.47241275735679 78.52351773339171 C 0.0 **** -0.24
24457 H 41.54460957399877 87.69497116666983 79.58968834977603 H 0.0 **** 0.06
24458 H 40.872114772396614 88.10304923386369 77.99283091641689 H 0.0 **** 0.06
24459 H 41.33607596811112 86.42366916485975 78.36184082587368 H 0.0 **** 0.06
24460 H 42.59249950199364 87.66854650434433 78.15013802539988 H 0.0 **** 0.06
24461 C 160.68974902105342 25.398111741897168 99.86606732540142 C 0.0 **** -0.24
24462 H 159.657439622972 25.150783806538684 99.61927987852371 H 0.0 **** 0.06
24463 H 160.77140055020575 26.46965210588221 100.0554669336124 H 0.0 **** 0.06
24464 H 161.33812172029982 25.126213232350388 99.03253152572904 H 0.0 **** 0.06
24465 H 160.99353686302146 24.847593821969568 100.75627225369516 H 0.0 **** 0.06
24466 C 104.32278233995032 13.742160268700985 80.80051101901665 C 0.0 **** -0.24
24467 H 103.46751242446814 13.107320116855703 80.5657595442666 H 0.0 **** 0.06
24468 H 105.18762264024201 13.117932151697573 81.02252077667475 H 0.0 **** 0.06
24469 H 104.08827994631409 14.36126094650973 81.66551436346509 H 0.0 **** 0.06
24470 H 104.54474822181811 14.381546734884921 79.94544494914402 H 0.0 **** 0.06
24471 C 36.02467824340175 151.5426493585848 39.44644389470655 C 0.0 **** -0.24
24472 H 35.259402063504695 151.24141919042583 38.73105615918692 H 0.0 **** 0.06
24473 H 36.98709582394039 151.13065793315235 39.14285317770975 H 0.0 **** 0.06
24474 H 35.76406312485244 151.16724805190796 40.43575449261414 H 0.0 **** 0.06
24475 H 36.08640866052923 152.63055885918905 39.47490671229977 H 0.0 **** 0.06
24476 C 50.26600680801147 115.36599456431958 93.90317822943632 C 0.0 **** -0.24
24477 H 49.92663400193305 116.12689376028996 93.19987716428409 H 0.0 **** 0.06
24478 H 49.58058204513503 115.32292088910273 94.75061581443863 H 0.0 **** 0.06
24479 H 51.265652644819056 115.61844620191329 94.25676305071234 H 0.0 **** 0.06
24480 H 50.28959743826823 114.39731810713093 93.40548634316808 H 0.0 **** 0.06
24481 C 88.11414796468125 104.96832086129592 9.258399375999701 C 0.0 **** -0.24
24482 H 88.64788133350828 105.78086004255067 8.76610514894056 H 0.0 **** 0.06
24483 H 88.81735719539591 104.36948198613715 9.837082045346946 H 0.0 **** 0.06
24484 H 87.63413848186212 104.34183273376755 8.506840085336727 H 0.0 **** 0.06
24485 H 87.35637956444981 105.38341126406124 9.923594754878607 H 0.0 **** 0.06
24486 C 54.657646258312724 113.89647167098252 31.94774524618225 C 0.0 **** -0.24
24487 H 53.74866158748041 114.49656613890875 32.00159121895172 H 0.0 **** 0.06
24488 H 54.5193133355783 112.9766058804467 32.51658864205325 H 0.0 **** 0.06
24489 H 55.4907936429926 114.4611957912978 32.366187548585145 H 0.0 **** 0.06
24490 H 54.8694864409064 113.65340604352895 30.90651439079994 H 0.0 **** 0.06
24491 C 69.61385938677208 128.13234331529594 157.11126666458338 C 0.0 **** -0.24
24492 H 68.89483454412591 128.2464445224829 157.92193430226894 H 0.0 **** 0.06
24493 H 70.58075366462273 128.52830249006647 157.42451049008673 H 0.0 **** 0.06
24494 H 69.26348027928702 128.6780133667708 156.2353850975753 H 0.0 **** 0.06
24495 H 69.7171888143426 127.07547941953058 156.86344491441946 H 0.0 **** 0.06
24496 C 48.95966525898511 138.46354219365492 143.02899397990996 C 0.0 **** -0.24
24497 H 48.97354927386597 139.5328678326922 142.82126885280297 H 0.0 **** 0.06
24498 H 48.16438441972548 138.24128575285405 143.74056781325098 H 0.0 **** 0.06
24499 H 49.919107538806784 138.16288221990334 143.4507794345108 H 0.0 **** 0.06
24500 H 48.78289712847615 137.91612412089538 142.102767571904 H 0.0 **** 0.06
24501 C 137.09515229389672 37.491735641021535 24.46917766750382 C 0.0 **** -0.24
24502 H 137.97740661135478 38.12556649303161 24.379485817343166 H 0.0 **** 0.06
24503 H 136.45833437094984 37.867679655446054 25.270571401657314 H 0.0 **** 0.06
24504 H 137.40221388707312 36.47153298154811 24.696271314134847 H 0.0 **** 0.06
24505 H 136.54246655875292 37.505126915485604 23.529954585298533 H 0.0 **** 0.06
24506 C 55.078498809513775 72.78374166809596 104.75254012781787 C 0.0 **** -0.24
24507 H 56.06470947082248 72.7746289543096 104.28809814555268 H 0.0 **** 0.06
24508 H 54.49057336256524 71.94689166539993 104.37483440396315 H 0.0 **** 0.06
24509 H 54.57410325163218 73.72034566660602 104.51473573381074 H 0.0 **** 0.06
24510 H 55.185520474523415 72.69372396785343 105.8344366532591 H 0.0 **** 0.06
24511 C 134.09037794158348 139.6285645510855 33.75469180431702 C 0.0 **** -0.24
24512 H 133.16687772201794 139.7250697340179 33.18217193073235 H 0.0 **** 0.06
24513 H 134.87659317416933 140.21095185546184 33.274634014589026 H 0.0 **** 0.06
24514 H 134.38558804601593 138.5804693574927 33.79336073906637 H 0.0 **** 0.06
24515 H 133.92940144712685 139.99806331900018 34.767334919245286 H 0.0 **** 0.06
24516 C 42.06498467212927 126.3723167725561 148.3898928618608 C 0.0 **** -0.24
24517 H 41.12514061992751 126.79099300670421 148.0294150710782 H 0.0 **** 0.06
24518 H 42.881119683031585 127.0568072704927 148.15443093971226 H 0.0 **** 0.06
24519 H 42.24443341896169 125.41251413976741 147.90583408629297 H 0.0 **** 0.06
24520 H 42.00979750103019 126.2301380316251 149.4693531202918 H 0.0 **** 0.06
24521 C 93.15389794443145 74.88294033689395 31.089324650291587 C 0.0 **** -0.24
24522 H 92.36807833110196 75.62591229142639 31.22609112898897 H 0.0 **** 0.06
24523 H 94.12538091763567 75.37768705516798 31.08595012766432 H 0.0 **** 0.06
24524 H 93.00507018860722 74.36801041555455 30.139689793362265 H 0.0 **** 0.06
24525 H 93.11575323173638 74.15956749533605 31.90417284901679 H 0.0 **** 0.06
24526 C 25.365510752109145 2.6425296431877427 102.85574112541516 C 0.0 **** -0.24
24527 H 25.783883963677113 2.1424449850409815 101.98248169409757 H 0.0 **** 0.06
24528 H 25.185344276847047 1.9085135417250285 103.6424744492736 H 0.0 **** 0.06
24529 H 24.426092068535922 3.1224641149206036 102.583413633877 H 0.0 **** 0.06
24530 H 26.06753138428553 3.394390010915515 103.21442460073786 H 0.0 **** 0.06
24531 C 45.38720888480728 150.03924674506447 98.38185115949722 C 0.0 **** -0.24
24532 H 46.09129718836198 150.34742360580486 97.60949145471142 H 0.0 **** 0.06
24533 H 45.09774095343286 150.90521385846034 98.97635523994134 H 0.0 **** 0.06
24534 H 45.85812876527416 149.29629242979706 99.02639381913971 H 0.0 **** 0.06
24535 H 44.50262328422798 149.60611347243082 97.91460631072988 H 0.0 **** 0.06
24536 C 131.85033408923363 95.0738987227795 142.82165527906943 C 0.0 **** -0.24
24537 H 130.85966028917287 95.25019914977933 142.4034012681807 H 0.0 **** 0.06
24538 H 132.05177235501628 94.00305615963651 142.83876287981542 H 0.0 **** 0.06
24539 H 131.8905812165154 95.46889868329797 143.83731274550343 H 0.0 **** 0.06
24540 H 132.59781848443728 95.57535083822933 142.20744465492032 H 0.0 **** 0.06
24541 C 19.387074411393925 152.61400997721063 124.33629887089694 C 0.0 **** -0.24
24542 H 19.776104539556428 153.12096112744013 123.4524861148133 H 0.0 **** 0.06
24543 H 18.45818289432318 153.09230996994006 124.64920551063454 H 0.0 **** 0.06
24544 H 20.11804720692284 152.67642896930215 125.1422148007129 H 0.0 **** 0.06
24545 H 19.19589559567752 151.56745060613719 124.09934951874476 H 0.0 **** 0.06
24546 C 33.60716344404875 126.09655529313488 79.31331564939971 C 0.0 **** -0.24
24547 H 33.911946652215306 126.62248459399757 78.40843365235872 H 0.0 **** 0.06
24548 H 32.621934960142596 126.44525978152478 79.62189927149531 H 0.0 **** 0.06
24549 H 34.327855227192345 126.29364834699811 80.1069834257428 H 0.0 **** 0.06
24550 H 33.56894430062471 125.02497706507393 79.11501465809303 H 0.0 **** 0.06
24551 C 115.39339208616443 97.55421776455194 118.2724414252078 C 0.0 **** -0.24
24552 H 114.35495420206294 97.58643024194618 118.6010185858367 H 0.0 **** 0.06
24553 H 115.80188589491945 96.56066306508308 118.45909282771163 H 0.0 **** 0.06
24554 H 115.97235105080148 98.29457602134696 118.82291846546894 H 0.0 **** 0.06
24555 H 115.44293234350371 97.7726028221457 117.20565954146912 H 0.0 **** 0.06
24556 C 80.21865159592875 35.36343942563546 30.747654562401635 C 0.0 **** -0.24
24557 H 79.33242874218763 35.96891289388796 30.933686127535964 H 0.0 **** 0.06
24558 H 80.48268659034414 35.420786672583134 29.690832096488265 H 0.0 **** 0.06
24559 H 80.01223731234205 34.32665703702418 31.014212797053517 H 0.0 **** 0.06
24560 H 81.04680014122471 35.73635439670703 31.34971954670368 H 0.0 **** 0.06
24561 C 89.08440540492805 0.3675448790037308 89.33091604040409 C 0.0 **** -0.24
24562 H 89.20948588917976 1.3883783007818806 88.97083433814484 H 0.0 **** 0.06
24563 H 89.04487214982593 -0.31483173573818135 88.48056246706646 H 0.0 **** 0.06
24564 H 88.15748862274779 0.29437626829019337 89.89956134522714 H 0.0 **** 0.06
24565 H 89.92572120498667 0.10251893193412798 89.97131734408028 H 0.0 **** 0.06
24566 C 109.66417684646126 49.76922678471112 13.932533059054208 C 0.0 **** -0.24
24567 H 110.73108983168851 49.88770144817954 14.1212796824218 H 0.0 **** 0.06
24568 H 109.10520611094663 50.033920382866995 14.830158190195618 H 0.0 **** 0.06
24569 H 109.45562859603962 48.733441995156426 13.666256272538874 H 0.0 **** 0.06
24570 H 109.36639346802295 50.42338516742288 13.11260760566779 H 0.0 **** 0.06
24571 C 67.06368261847825 137.94473499280247 93.29737766411426 C 0.0 **** -0.24
24572 H 66.92200830834292 137.32795019212472 94.18481822759361 H 0.0 **** 0.06
24573 H 66.25324250585834 138.67062464448287 93.22775074637758 H 0.0 **** 0.06
24574 H 67.06271117837048 137.312438194327 92.41015692697806 H 0.0 **** 0.06
24575 H 68.01700653088085 138.46889446776652 93.36878659812646 H 0.0 **** 0.06
24576 C 79.68225179382401 161.4679222403657 63.4686264510442 C 0.0 **** -0.24
24577 H 80.5747175037016 161.78424881579758 62.928109727161825 H 0.0 **** 0.06
24578 H 79.10657808604066 162.34571150652303 63.76426758313261 H 0.0 **** 0.06
24579 H 79.97489645343575 160.9088325897485 64.35704735575388 H 0.0 **** 0.06
24580 H 79.07351950581386 160.83401020567942 62.82456871854595 H 0.0 **** 0.06
24581 C 22.07500412621414 9.146602226115192 67.79506196232387 C 0.0 **** -0.24
24582 H 21.67638239918665 9.599165187968623 68.70341671785559 H 0.0 **** 0.06
24583 H 21.982682954850247 9.850776596503806 66.96818524022746 H 0.0 **** 0.06
24584 H 21.51530518391823 8.239343305656035 67.56545527407712 H 0.0 **** 0.06
24585 H 23.125409127887878 8.8971459247324 67.9454140310221 H 0.0 **** 0.06
24586 C 68.39562738536426 10.484614824441081 62.4877776883698 C 0.0 **** -0.24
24587 H 67.4008692278489 10.03913470007825 62.528182747920766 H 0.0 **** 0.06
24588 H 68.614947687332 10.969285238161575 63.43859313816475 H 0.0 **** 0.06
24589 H 68.42939609529857 11.22271577200155 61.68612281507038 H 0.0 **** 0.06
24590 H 69.1347119053516 9.706728618301725 62.29598358106273 H 0.0 **** 0.06
24591 C 92.56535876286796 159.11527849095341 6.479259436625654 C 0.0 **** -0.24
24592 H 92.20045775316807 158.76658475620945 5.5124555118038145 H 0.0 **** 0.06
24593 H 93.08803894768201 160.0628062643882 6.349023517096434 H 0.0 **** 0.06
24594 H 93.25054492069337 158.37739132146112 6.896583424162273 H 0.0 **** 0.06
24595 H 91.72334084927506 159.25428707056176 7.156310588350841 H 0.0 **** 0.06
24596 C 25.543971577067254 128.04742018465203 69.2311621557531 C 0.0 **** -0.24
24597 H 25.639185648273752 127.52595487632459 70.18367098703642 H 0.0 **** 0.06
24598 H 26.534206480669923 128.31646446063198 68.86467635275895 H 0.0 **** 0.06
24599 H 24.949559108154006 128.95018281338412 69.3700300550002 H 0.0 **** 0.06
24600 H 25.053261510058974 127.39556246285815 68.50788211377973 H 0.0 **** 0.06
24601 C 129.71661123647527 48.96582682341338 120.14130700455621 C 0.0 **** -0.24
24602 H 130.75110117221593 49.11363932995114 119.83020748228682 H 0.0 **** 0.06
24603 H 129.62746458510847 49.16318006889952 121.20935073595774 H 0.0 **** 0.06
24604 H 129.4197780376602 47.93747562705333 119.93454933756058 H 0.0 **** 0.06
24605 H 129.07100011154196 49.649006177396146 119.58985701792139 H 0.0 **** 0.06
24606 C 109.77957211599917 81.25385238967351 42.60541820706716 C 0.0 **** -0.24
24607 H 109.5001536591707 80.66000120559346 43.47628615602753 H 0.0 **** 0.06
24608 H 110.67038850907167 80.82632266826118 42.145151600169555 H 0.0 **** 0.06
24609 H 109.98604987904434 82.27782045758164 42.91532328526944 H 0.0 **** 0.06
24610 H 108.96015064861822 81.25011444223225 41.88604600271293 H 0.0 **** 0.06
24611 C 9.40101215245312 37.85776496185717 52.34049688033508 C 0.0 **** -0.24
24612 H 9.968227634084059 37.063251491070034 51.85542389259393 H 0.0 **** 0.06
24613 H 10.027554424701087 38.35103397020961 53.083953225605114 H 0.0 **** 0.06
24614 H 8.524683243530355 37.43101337305903 52.82997887982364 H 0.0 **** 0.06
24615 H 9.08130811304408 38.58429690239804 51.59392772612 H 0.0 **** 0.06
24616 C 22.407578704313266 0.867156665944151 35.68473063613237 C 0.0 **** -0.24
24617 H 21.738194585839523 1.6989846959572787 35.90632692892524 H 0.0 **** 0.06
24618 H 21.990315254582725 -0.053249037975746205 36.09408675434531 H 0.0 **** 0.06
24619 H 23.382272430436615 1.0560869212429225 36.133641906753894 H 0.0 **** 0.06
24620 H 22.517395297639126 0.767394961255917 34.60515536979574 H 0.0 **** 0.06
24621 C 152.6073538158842 33.326860444482634 38.836536908422204 C 0.0 **** -0.24
24622 H 153.6055694120489 33.71729833134066 39.03544831140988 H 0.0 **** 0.06
24623 H 152.66355597805517 32.25033965119499 38.678786727928696 H 0.0 **** 0.06
24624 H 152.20142589073288 33.80584154599774 37.9449554424109 H 0.0 **** 0.06
24625 H 151.95980636501866 33.53668873374767 39.68778084500815 H 0.0 **** 0.06
24626 C 70.01949826157558 33.6263968360486 43.930020160018174 C 0.0 **** -0.24
24627 H 69.41246693844393 33.25448786080352 44.75568265489325 H 0.0 **** 0.06
24628 H 69.603355419721 33.27468171150687 42.986185719998076 H 0.0 **** 0.06
24629 H 71.04082894651317 33.259199849527306 44.036621743361124 H 0.0 **** 0.06
24630 H 70.02222750828467 34.7164518042884 43.943495418518026 H 0.0 **** 0.06
24631 C 45.24784325133152 62.54561146734237 8.257597420279296 C 0.0 **** -0.24
24632 H 45.72268945158589 61.57375712543333 8.387447495586741 H 0.0 **** 0.06
24633 H 45.154014240461606 62.76455770998115 7.193310543505163 H 0.0 **** 0.06
24634 H 45.855047859695674 63.31457906500755 8.735007357334439 H 0.0 **** 0.06
24635 H 44.25744170888072 62.52978195561184 8.714181599625931 H 0.0 **** 0.06
24636 C 91.62548435283612 96.93885008240721 4.072489843582844 C 0.0 **** -0.24
24637 H 92.20297381566715 97.73291566131644 4.546695133349203 H 0.0 **** 0.06
24638 H 91.26850459645028 97.28080808632097 3.1005247913899154 H 0.0 **** 0.06
24639 H 90.77519164352843 96.6820810672034 4.703236858658528 H 0.0 **** 0.06
24640 H 92.2575659943727 96.06128824033453 3.9385799793739977 H 0.0 **** 0.06
24641 C 15.489738360227413 65.82149211997385 120.56553869890868 C 0.0 **** -0.24
24642 H 15.015617850076836 66.0964346165747 119.62312465286945 H 0.0 **** 0.06
24643 H 15.358044525808978 64.75391297602158 120.74044252371732 H 0.0 **** 0.06
24644 H 15.030582337968546 66.38222998752528 121.38011261669493 H 0.0 **** 0.06
24645 H 16.55412703074358 66.05400209549003 120.51901175124954 H 0.0 **** 0.06
24646 C 23.3828873659956 8.481884457054306 35.263393204250065 C 0.0 **** -0.24
24647 H 24.445161336185038 8.72330508046393 35.22735228387444 H 0.0 **** 0.06
24648 H 23.18894489109485 7.823951839618992 36.11116255757679 H 0.0 **** 0.06
24649 H 23.092717398733015 7.9807882133255035 34.34066368863358 H 0.0 **** 0.06
24650 H 22.804635804357673 9.398757847379784 35.37625224652891 H 0.0 **** 0.06
24651 C 3.6243115179414858 69.3620821976616 117.97640576134307 C 0.0 **** -0.24
24652 H 3.863282808152171 68.29881563972833 117.93246432806006 H 0.0 **** 0.06
24653 H 4.510898812841283 69.94374702276332 117.71979336957037 H 0.0 **** 0.06
24654 H 3.2998467553357997 69.61972964663704 118.98398018959091 H 0.0 **** 0.06
24655 H 2.8261826736939284 69.5845308672117 117.26841438956001 H 0.0 **** 0.06
24656 C 56.496801348564816 64.24940926340332 38.128271251008755 C 0.0 **** -0.24
24657 H 56.14633515996678 65.23446514115818 37.81916084576841 H 0.0 **** 0.06
24658 H 57.5277591388583 64.32358547549904 38.474360519348295 H 0.0 **** 0.06
24659 H 56.445598615226345 63.56376591591231 37.28218121385123 H 0.0 **** 0.06
24660 H 55.866645221401825 63.877039245680095 38.93544264324845 H 0.0 **** 0.06
24661 C 117.26995948612614 85.74889887450581 140.5938750246564 C 0.0 **** -0.24
24662 H 116.2470632070391 85.42668984956742 140.79203768933002 H 0.0 **** 0.06
24663 H 117.95518164453748 84.92551865701726 140.79961884270955 H 0.0 **** 0.06
24664 H 117.51415142633985 86.59412732030215 141.23643474257923 H 0.0 **** 0.06
24665 H 117.3607575784265 86.04663437578127 139.55003639490448 H 0.0 **** 0.06
24666 C 143.90833081024599 10.295090665086462 32.57839000351669 C 0.0 **** -0.24
24667 H 143.06710862335092 10.078446870534464 33.236128194216235 H 0.0 **** 0.06
24668 H 144.83921935007842 10.03373046195599 33.08182146129741 H 0.0 **** 0.06
24669 H 143.91347787548864 11.357722588121355 32.33275652974936 H 0.0 **** 0.06
24670 H 143.81378334898628 9.711331256009686 31.66243552678918 H 0.0 **** 0.06
24671 C 122.7018894703445 64.88217759205844 151.55726899678308 C 0.0 **** -0.24
24672 H 121.8561297179219 65.56662842348794 151.62798234055498 H 0.0 **** 0.06
24673 H 122.6487283852048 64.33582100075051 150.6161280938605 H 0.0 **** 0.06
24674 H 122.66949935319556 64.17856452414628 152.38936598575995 H 0.0 **** 0.06
24675 H 123.6324213703416 65.44983383486306 151.5965077034505 H 0.0 **** 0.06
24676 C 40.289611367471196 36.49295374104487 101.84311341668865 C 0.0 **** -0.24
24677 H 40.92430759849003 37.22531196178622 102.3428513596242 H 0.0 **** 0.06
24678 H 40.91409649179252 35.745314259205855 101.3534580185626 H 0.0 **** 0.06
24679 H 39.67245249341221 36.99568001239413 101.0984926571947 H 0.0 **** 0.06
24680 H 39.647984600404016 36.00688683394446 102.57862339909553 H 0.0 **** 0.06
24681 C 43.79549725541078 145.8491137933123 151.96111423939527 C 0.0 **** -0.24
24682 H 44.78736125115573 145.88378362914722 152.4097294603734 H 0.0 **** 0.06
24683 H 43.74663372299045 145.02328030770167 151.25151628309243 H 0.0 **** 0.06
24684 H 43.59829047735077 146.78698983710973 151.44237648904877 H 0.0 **** 0.06
24685 H 43.048636295614955 145.7024108106557 152.74176257034523 H 0.0 **** 0.06
24686 C 43.492773357884104 74.64133687210844 62.96596365628265 C 0.0 **** -0.24
24687 H 42.86089234904625 73.96351133930966 62.392647187951056 H 0.0 **** 0.06
24688 H 44.381156175803284 74.10879501623185 63.30672166687761 H 0.0 **** 0.06
24689 H 42.93913307001509 75.01273413138128 63.82774282383298 H 0.0 **** 0.06
24690 H 43.79089637868525 75.48013306341176 62.33672166874872 H 0.0 **** 0.06
24691 C 42.212527609700956 62.05539299892972 72.63098611495404 C 0.0 **** -0.24
24692 H 41.968052069357356 61.146412057389526 72.08110410712881 H 0.0 **** 0.06
24693 H 42.7656503829746 62.73522424910645 71.98249668441021 H 0.0 **** 0.06
24694 H 42.82389390337008 61.801244245870066 73.49708861120538 H 0.0 **** 0.06
24695 H 41.293460303694346 62.536623897635224 72.9641661566147 H 0.0 **** 0.06
24696 C 13.5613870820643 118.46251542850393 30.9914844633305 C 0.0 **** -0.24
24697 H 14.266073581881813 118.48432483236294 30.160844282396866 H 0.0 **** 0.06
24698 H 13.589117967270937 117.48061566915285 31.464628982910355 H 0.0 **** 0.06
24699 H 12.555727071218001 118.65915066423577 30.619690989803672 H 0.0 **** 0.06
24700 H 13.834017152849327 119.22559312175514 31.720079079862167 H 0.0 **** 0.06
24701 C 158.49689893995793 59.74803460011091 65.12685335774108 C 0.0 **** -0.24
24702 H 157.7554402522186 60.544289608865654 65.05128303739468 H 0.0 **** 0.06
24703 H 158.37963132083866 59.23225222056871 66.08004153741632 H 0.0 **** 0.06
24704 H 159.49711470601102 60.17680393820076 65.06517571789999 H 0.0 **** 0.06
24705 H 158.35277017107802 59.04041901272399 64.31028925160103 H 0.0 **** 0.06
24706 C 143.56089504760251 46.983943119938786 158.1789912740625 C 0.0 **** -0.24
24707 H 143.82249504475658 47.2197370031693 157.14702442925227 H 0.0 **** 0.06
24708 H 144.1929545833261 47.55972257671522 158.85510118944674 H 0.0 **** 0.06
24709 H 143.71330160057468 45.91904501477755 158.35730322590598 H 0.0 **** 0.06
24710 H 142.5154876678053 47.235937207394244 158.35458802571415 H 0.0 **** 0.06
24711 C 44.19593329239419 44.96357242916383 92.85955393737656 C 0.0 **** -0.24
24712 H 44.337136502462855 43.883138577723 92.89044416055286 H 0.0 **** 0.06
24713 H 43.9574860261901 45.268808054441934 91.84135163441437 H 0.0 **** 0.06
24714 H 45.11093589514769 45.458285642750326 93.18365869875693 H 0.0 **** 0.06
24715 H 43.37747765221039 45.24166470859649 93.52409883946325 H 0.0 **** 0.06
24716 C 106.46905527079201 132.41604119007704 86.38974414175064 C 0.0 **** -0.24
24717 H 107.01098659351487 132.6837218037816 85.48262596337726 H 0.0 **** 0.06
24718 H 107.0993737537932 132.6053344905813 87.25929836499229 H 0.0 **** 0.06
24719 H 106.20420334180369 131.35969063661722 86.35565906966293 H 0.0 **** 0.06
24720 H 105.56206183451377 133.01631600857593 86.46122073888293 H 0.0 **** 0.06
24721 C 4.665050355232722 29.23224836977238 132.5954826267892 C 0.0 **** -0.24
24722 H 5.146491505122015 28.618274773690786 131.83332861055558 H 0.0 **** 0.06
24723 H 5.0984093520749525 30.232869849835225 132.58171587246918 H 0.0 **** 0.06
24724 H 4.820684412030005 28.782294420313065 133.57609077727017 H 0.0 **** 0.06
24725 H 3.5971646024531765 29.29619376175495 132.38934716812784 H 0.0 **** 0.06
24726 C 87.91879445667749 128.52969609164623 72.8253955375094 C 0.0 **** -0.24
24727 H 88.02655359538512 129.61303706614402 72.77105255595869 H 0.0 **** 0.06
24728 H 87.18572749777245 128.2748349759207 73.5910844541164 H 0.0 **** 0.06
24729 H 88.87971476625816 128.08094314269493 73.07789270068837 H 0.0 **** 0.06
24730 H 87.58386922083754 128.149183836134 71.85984626359962 H 0.0 **** 0.06
24731 C 158.58753593670096 79.2769550738186 138.66822494941678 C 0.0 **** -0.24
24732 H 159.2804347669051 78.83355136749016 137.95273683880893 H 0.0 **** 0.06
24733 H 158.56523294247364 78.67165516209431 139.5749506397068 H 0.0 **** 0.06
24734 H 157.58984080382342 79.31479496082494 138.23117756901638 H 0.0 **** 0.06
24735 H 158.91646002412296 80.28696457781425 138.91306491169533 H 0.0 **** 0.06
24736 C 9.113129757741753 38.36225198421417 154.56901726481718 C 0.0 **** -0.24
24737 H 8.131003304211944 37.913964637600415 154.72006013113412 H 0.0 **** 0.06
24738 H 9.519642183737517 38.67837142602738 155.52904276636303 H 0.0 **** 0.06
24739 H 9.020441671323312 39.226342081979354 153.91077559928362 H 0.0 **** 0.06
24740 H 9.77989372626088 37.62999336766305 154.1143141006908 H 0.0 **** 0.06
24741 C 101.1331718686489 104.78777566058875 156.1986987545678 C 0.0 **** -0.24
24742 H 101.09588925404663 105.64107729057525 156.8758635718188 H 0.0 **** 0.06
24743 H 102.13533332414869 104.70254379312894 155.77811248120986 H 0.0 **** 0.06
24744 H 100.41204679013512 104.93018681630139 155.39386800320017 H 0.0 **** 0.06
24745 H 100.8905301260009 103.87802792508319 156.7474262677822 H 0.0 **** 0.06
24746 C 142.47536171547486 128.922708147466 54.187286875826175 C 0.0 **** -0.24
24747 H 143.25310271630025 128.75240533864982 54.93148626659712 H 0.0 **** 0.06
24748 H 142.43327970233193 129.98481145286704 53.94387249993238 H 0.0 **** 0.06
24749 H 141.51308935475342 128.60277088038106 54.58716424288204 H 0.0 **** 0.06
24750 H 142.7026478649021 128.35147847758705 53.28769502390102 H 0.0 **** 0.06
24751 C 154.59774306865916 65.40543984462134 122.02829591844969 C 0.0 **** -0.24
24752 H 154.16360834488424 64.43320155043749 122.26545968701356 H 0.0 **** 0.06
24753 H 154.84779485348412 65.92670975478622 122.95260141786994 H 0.0 **** 0.06
24754 H 153.8782817475118 65.99516113306319 121.45984708333191 H 0.0 **** 0.06
24755 H 155.50151484965758 65.26341994275519 121.43475080098767 H 0.0 **** 0.06
24756 C 19.070280745411367 100.64674271174263 33.38751619780459 C 0.0 **** -0.24
24757 H 19.354869588981728 100.85095610689652 34.42008772524275 H 0.0 **** 0.06
24758 H 18.042107660718813 100.28900909010738 33.35887087824153 H 0.0 **** 0.06
24759 H 19.732409421201083 99.88656332333545 32.97173524345942 H 0.0 **** 0.06
24760 H 19.153856335347996 101.56167754417274 32.8010972133506 H 0.0 **** 0.06
24761 C 24.95639983631844 108.07923445654063 60.01348422650095 C 0.0 **** -0.24
24762 H 24.821206147499538 107.89031058070583 58.949425847539956 H 0.0 **** 0.06
24763 H 24.809054871208872 107.15211823481292 60.568305691605644 H 0.0 **** 0.06
24764 H 24.230210126825853 108.82136862879733 60.3464080282598 H 0.0 **** 0.06
24765 H 25.964744452752853 108.4531433225423 60.19115851087368 H 0.0 **** 0.06
24766 C 31.106647329051555 112.16590895930457 122.95839257446198 C 0.0 **** -0.24
24767 H 31.376299832212283 112.52805965868012 123.9505620455345 H 0.0 **** 0.06
24768 H 30.02508982220519 112.05490536403312 122.8939537588765 H 0.0 **** 0.06
24769 H 31.58301140894139 111.20115050891977 122.78322619744566 H 0.0 **** 0.06
24770 H 31.444674683083434 112.88015823783843 122.20738102866025 H 0.0 **** 0.06
24771 C 44.67593676670786 133.98468946755457 62.74774240366668 C 0.0 **** -0.24
24772 H 45.18393249236712 134.82694134154985 63.217123878856114 H 0.0 **** 0.06
24773 H 43.60522348479515 134.0515251488556 62.944009963811595 H 0.0 **** 0.06
24774 H 45.06355735516412 133.05225761107963 63.15919227245985 H 0.0 **** 0.06
24775 H 44.85116578703298 134.00845533298303 61.6728355297883 H 0.0 **** 0.06
24776 C 119.33842070710094 56.3175339587184 55.839702051953395 C 0.0 **** -0.24
24777 H 118.57047838873143 55.58444740371311 55.591350332820284 H 0.0 **** 0.06
24778 H 119.15617857837228 57.23686678833775 55.284291596978434 H 0.0 **** 0.06
24779 H 120.31860282784478 55.919882699294504 55.57542121488261 H 0.0 **** 0.06
24780 H 119.30843217911283 56.52693699420729 56.90915655041657 H 0.0 **** 0.06
24781 C 131.77657424308305 104.24299749745302 111.46828613827347 C 0.0 **** -0.24
24782 H 131.30787070008324 103.26123506012658 111.40307607765038 H 0.0 **** 0.06
24783 H 131.0057536384801 105.00558522491622 111.5829353069762 H 0.0 **** 0.06
24784 H 132.3458858486239 104.43526387701846 110.55865170427927 H 0.0 **** 0.06
24785 H 132.445145059737 104.27045401610934 112.32854717376415 H 0.0 **** 0.06
24786 C 61.516045428608436 70.57167817912023 90.75749327987967 C 0.0 **** -0.24
24787 H 61.33290414504529 69.98070754515288 91.65519804917288 H 0.0 **** 0.06
24788 H 61.00149212639772 71.52930571035373 90.84174463602183 H 0.0 **** 0.06
24789 H 61.142009520214714 70.03314198081745 89.88620412728345 H 0.0 **** 0.06
24790 H 62.587042078297074 70.74203861449786 90.6464331023468 H 0.0 **** 0.06
24791 C 135.30103223605062 41.38525938701861 162.39508358333615 C 0.0 **** -0.24
24792 H 135.95040049327338 40.51965965067254 162.5230866905541 H 0.0 **** 0.06
24793 H 134.42089481725498 41.27680441157315 163.02893332916472 H 0.0 **** 0.06
24794 H 134.99034492695583 41.45481836273501 161.35179462407245 H 0.0 **** 0.06
24795 H 135.84143281609116 42.289795014096 162.67389600033155 H 0.0 **** 0.06
24796 C 36.06321731564253 139.83860357133432 13.985567063569306 C 0.0 **** -0.24
24797 H 36.608862116975104 140.17461919936744 14.868093066695451 H 0.0 **** 0.06
24798 H 36.62926971073938 139.05253275968107 13.486056089834108 H 0.0 **** 0.06
24799 H 35.92651864601106 140.67752914920885 13.302615946254377 H 0.0 **** 0.06
24800 H 35.08975647152704 139.45223870485188 14.286101594616866 H 0.0 **** 0.06
24801 C 53.39307194152477 42.47474838493318 11.007952080883747 C 0.0 **** -0.24
24802 H 54.47195878160781 42.385638382343345 10.881273566124506 H 0.0 **** 0.06
24803 H 52.89320236714882 41.719349748200926 10.401059845265948 H 0.0 **** 0.06
24804 H 53.07037358807786 43.466966198119636 10.691619253416121 H 0.0 **** 0.06
24805 H 53.13631381322199 42.32614577123668 12.056851211171612 H 0.0 **** 0.06
24806 C 158.75639071345125 132.75972877111445 44.557329699318274 C 0.0 **** -0.24
24807 H 158.30088444273295 132.3633075921802 45.46512877468183 H 0.0 **** 0.06
24808 H 159.0683297334431 133.7904289838912 44.72832969601018 H 0.0 **** 0.06
24809 H 158.03147071587952 132.73041503300288 43.74383012388773 H 0.0 **** 0.06
24810 H 159.62522717686173 132.1567582208329 44.29297845914488 H 0.0 **** 0.06
24811 C 157.6659584011873 20.868231378564758 41.541286838400424 C 0.0 **** -0.24
24812 H 156.98207247312862 21.487832410781834 42.1211251310352 H 0.0 **** 0.06
24813 H 158.67269529837276 20.95880457894907 41.94908846761717 H 0.0 **** 0.06
24814 H 157.6634323234618 21.200037816057545 40.502459134704026 H 0.0 **** 0.06
24815 H 157.3439449490839 19.82765514514432 41.59138995372305 H 0.0 **** 0.06
24816 C 158.7991431064299 119.8371319807462 50.40777294747744 C 0.0 **** -0.24
24817 H 158.26216559228038 119.20626868829982 51.11612421007817 H 0.0 **** 0.06
24818 H 159.8704371735829 119.65967862884037 50.50283181526453 H 0.0 **** 0.06
24819 H 158.5839760098714 120.88483199970844 50.62017981297461 H 0.0 **** 0.06
24820 H 158.47844479967003 119.59830943324278 49.39346813099951 H 0.0 **** 0.06
24821 C 73.9311744558236 95.47787863500466 30.389453453840922 C 0.0 **** -0.24
24822 H 73.34633580449986 96.34537032719707 30.082530349049378 H 0.0 **** 0.06
24823 H 73.8407901209834 95.34193371728873 31.466795313947962 H 0.0 **** 0.06
24824 H 74.9780329426415 95.63588559427514 30.12897891740902 H 0.0 **** 0.06
24825 H 73.55895471255016 94.59034373020872 29.877368379556017 H 0.0 **** 0.06
24826 C 90.29743926951124 10.505254367079885 38.34102968234106 C 0.0 **** -0.24
24827 H 90.99926825376417 10.171646336078254 39.1059229030582 H 0.0 **** 0.06
24828 H 89.29636171447228 10.565609338015975 38.76844385342923 H 0.0 **** 0.06
24829 H 90.29775853482623 9.794437534867484 37.514969048381616 H 0.0 **** 0.06
24830 H 90.59769803368079 11.486741001302192 37.97603177163863 H 0.0 **** 0.06
24831 C 117.31789127801608 108.39467283714168 55.50821176824604 C 0.0 **** -0.24
24832 H 117.35072364891016 108.64191329866014 56.568879491404005 H 0.0 **** 0.06
24833 H 116.40421981592775 108.79685679522743 55.06957478312654 H 0.0 **** 0.06
24834 H 117.33211339894294 107.31096609183618 55.38771152438187 H 0.0 **** 0.06
24835 H 118.18355193642131 108.8279377401218 55.00645682142749 H 0.0 **** 0.06
24836 C 110.47624319423048 66.99721133633352 134.57826282996126 C 0.0 **** -0.24
24837 H 110.84143199524956 66.93839256628752 133.5524103157978 H 0.0 **** 0.06
24838 H 109.6487700305218 66.29917037012643 134.70991716932497 H 0.0 **** 0.06
24839 H 110.13388582449494 68.01084202541017 134.7837040040829 H 0.0 **** 0.06
24840 H 111.28232041995383 66.7398558881323 135.26540803814507 H 0.0 **** 0.06
24841 C 70.55244914799492 162.15650855643733 105.03857569394481 C 0.0 **** -0.24
24842 H 70.61178493624297 161.06843719378182 105.01174602665915 H 0.0 **** 0.06
24843 H 71.2684751341678 162.57702580369582 104.33171437774095 H 0.0 **** 0.06
24844 H 70.78519663332327 162.5076562939011 106.04426787066572 H 0.0 **** 0.06
24845 H 69.54536938764451 162.47234417811435 104.76784511427536 H 0.0 **** 0.06
24846 C 27.047856269296574 62.3586614079199 65.18161172788294 C 0.0 **** -0.24
24847 H 26.012126047644813 62.10150036443383 64.95813693526411 H 0.0 **** 0.06
24848 H 27.1108418223275 62.7634547926898 66.19212299327693 H 0.0 **** 0.06
24849 H 27.39911858560714 63.10380129197782 64.4684082720894 H 0.0 **** 0.06
24850 H 27.66695666609698 61.46415209838608 65.10892288233106 H 0.0 **** 0.06
24851 C 12.778257042750568 104.78044722148337 25.91061281845947 C 0.0 **** -0.24
24852 H 13.035468830779735 105.4209580533028 26.753924036662177 H 0.0 **** 0.06
24853 H 13.655246985668157 104.20513118618189 25.61042950935562 H 0.0 **** 0.06
24854 H 12.443179877719444 105.39515537145715 25.07542719422208 H 0.0 **** 0.06
24855 H 11.978888513438221 104.09832759858807 26.20283478487758 H 0.0 **** 0.06
24856 C 28.099332188166095 118.25939809383257 87.51115521638172 C 0.0 **** -0.24
24857 H 27.99693903374343 117.41710698920059 88.19489286547207 H 0.0 **** 0.06
24858 H 28.339269316235757 119.16026981289613 88.07693097643937 H 0.0 **** 0.06
24859 H 27.162154134443476 118.40704169734073 86.97383265083951 H 0.0 **** 0.06
24860 H 28.897365132174542 118.05296066054089 86.79833907840694 H 0.0 **** 0.06
24861 C 38.88578579593741 116.57711170593342 77.5552814540215 C 0.0 **** -0.24
24862 H 39.00433518426385 117.00939929836838 78.54918001813172 H 0.0 **** 0.06
24863 H 39.582011206554284 117.05676267160871 76.86589401329877 H 0.0 **** 0.06
24864 H 37.8648400446493 116.73709660385052 77.20976237013485 H 0.0 **** 0.06
24865 H 39.09323285684775 115.50854009764984 77.59735575693836 H 0.0 **** 0.06
24866 C 41.70831251286728 156.80269974960066 93.57626571282003 C 0.0 **** -0.24
24867 H 41.801396776197805 157.84582724416643 93.27274597688323 H 0.0 **** 0.06
24868 H 40.663953319847394 156.4988902860796 93.5130556825574 H 0.0 **** 0.06
24869 H 42.05755776677739 156.69236101016625 94.60291315600975 H 0.0 **** 0.06
24870 H 42.31033840308879 156.17752286637926 92.91794246023157 H 0.0 **** 0.06
24871 C 96.20306792096062 128.8160182489588 68.23510618022968 C 0.0 **** -0.24
24872 H 95.22196185807879 128.36883097107204 68.0807843242687 H 0.0 **** 0.06
24873 H 96.31329138405358 129.68340593021355 67.58433183227652 H 0.0 **** 0.06
24874 H 96.97659099963997 128.08440257782718 67.99886593842426 H 0.0 **** 0.06
24875 H 96.30134094908344 129.1263071523428 69.27506533551473 H 0.0 **** 0.06
24876 C 72.78249399404436 116.91402170549901 109.31023310468663 C 0.0 **** -0.24
24877 H 73.3378807546233 117.11881750878624 108.39487848154977 H 0.0 **** 0.06
24878 H 72.1253025503808 116.05916627791677 109.15351541531663 H 0.0 **** 0.06
24879 H 72.18702060483501 117.78763306837976 109.5762565978763 H 0.0 **** 0.06
24880 H 73.48171885077362 116.69250531960407 110.1165419455927 H 0.0 **** 0.06
24881 C 13.853642366248465 145.10093948904776 160.0802741786881 C 0.0 **** -0.24
24882 H 13.093207751594932 144.3897026937795 160.40457544239996 H 0.0 **** 0.06
24883 H 13.462326744981006 145.69933042826716 159.25656411290186 H 0.0 **** 0.06
24884 H 14.739175542539321 144.55896061818683 159.74857590004277 H 0.0 **** 0.06
24885 H 14.11632748969678 145.7546527902348 160.9119203161685 H 0.0 **** 0.06
24886 C 141.72188741495472 69.62850980784583 57.50836042929805 C 0.0 **** -0.24
24887 H 142.04171133760323 70.36666371115845 58.24417245949988 H 0.0 **** 0.06
24888 H 142.5695987775661 69.00263792208847 57.229538473005874 H 0.0 **** 0.06
24889 H 141.33926871257708 70.13880894088021 56.624333514849354 H 0.0 **** 0.06
24890 H 140.9360319342266 69.00636583045625 57.93636029153373 H 0.0 **** 0.06
24891 C 13.473272925790553 22.129791803659046 132.37429672709212 C 0.0 **** -0.24
24892 H 12.558970152981999 22.087071637098326 131.7820642597819 H 0.0 **** 0.06
24893 H 14.32270897442072 21.849839889553245 131.75143624996036 H 0.0 **** 0.06
24894 H 13.394351403454834 21.43875448324021 133.2138898954676 H 0.0 **** 0.06
24895 H 13.61538292879402 23.14307474888745 132.74983803219766 H 0.0 **** 0.06
24896 C 131.73285392103784 121.86945012813294 83.57761817038542 C 0.0 **** -0.24
24897 H 132.6893567726355 122.1178540785161 84.03484082333168 H 0.0 **** 0.06
24898 H 131.6191213668564 122.42774048426713 82.64793776012395 H 0.0 **** 0.06
24899 H 130.92439351174966 122.13117304907777 84.25947570904147 H 0.0 **** 0.06
24900 H 131.69805571887343 120.80067030247235 83.36584557362228 H 0.0 **** 0.06
24901 C 27.653752201935276 48.497383221029835 68.63375920544736 C 0.0 **** -0.24
24902 H 27.473883767652467 47.91545096917355 67.7307387148396 H 0.0 **** 0.06
24903 H 28.708635236096256 48.436484107669386 68.90080401257684 H 0.0 **** 0.06
24904 H 27.04820779443145 48.100958512111106 69.44885323683751 H 0.0 **** 0.06
24905 H 27.38303767826079 49.53846095081283 68.45500604408782 H 0.0 **** 0.06
24906 C 54.57029996414154 118.64404779719621 50.37980390373883 C 0.0 **** -0.24
24907 H 54.5922295909029 117.58500561280107 50.63561356065051 H 0.0 **** 0.06
24908 H 55.271170092114545 119.18530272343736 51.01689893880524 H 0.0 **** 0.06
24909 H 53.56452026993085 119.03404670136655 50.53176731252654 H 0.0 **** 0.06
24910 H 54.856408009932736 118.77143826657868 49.33517442511288 H 0.0 **** 0.06
24911 C 29.265212430821578 50.423278568362775 74.65149002264096 C 0.0 **** -0.24
24912 H 30.34674359324805 50.28973233159513 74.68193036397074 H 0.0 **** 0.06
24913 H 28.863207564107938 50.36101337665812 75.66269968772802 H 0.0 **** 0.06
24914 H 28.81952918293075 49.643189822069644 74.03419847892286 H 0.0 **** 0.06
24915 H 29.03181491126861 51.400489028008906 74.22684049559781 H 0.0 **** 0.06
24916 C 17.73604305542404 43.06700554542296 54.98558943523456 C 0.0 **** -0.24
24917 H 18.470961423542448 42.8882205341049 54.20068194435005 H 0.0 **** 0.06
24918 H 18.071608854102003 43.89022621729849 55.6161234700419 H 0.0 **** 0.06
24919 H 17.625862928854154 42.16754002533753 55.590856282501804 H 0.0 **** 0.06
24920 H 16.77755088414964 43.321038018309096 54.53384604305185 H 0.0 **** 0.06
24921 C 84.66892326153936 160.6618990249925 22.17018101987611 C 0.0 **** -0.24
24922 H 85.07270853068056 160.30693023665953 23.118363213033717 H 0.0 **** 0.06
24923 H 84.81105243852593 161.741139272766 22.09669830980036 H 0.0 **** 0.06
24924 H 83.60475612274197 160.43106489847895 22.119656092537383 H 0.0 **** 0.06
24925 H 85.1868586536163 160.16978266523978 21.347782555658597 H 0.0 **** 0.06
24926 C 85.60995966118458 65.69594082913457 40.54585265824511 C 0.0 **** -0.24
24927 H 85.77702786698762 64.63295362742431 40.71907007118031 H 0.0 **** 0.06
24928 H 86.42280423590233 66.2688433552365 40.99271087328471 H 0.0 **** 0.06
24929 H 84.66421474823417 65.99337885317999 40.99926422507731 H 0.0 **** 0.06
24930 H 85.57609701112733 65.88775252163586 39.473851995030444 H 0.0 **** 0.06
24931 C 14.295868150066838 153.20996155949433 72.96054328565168 C 0.0 **** -0.24
24932 H 13.792822517001667 153.9374285953863 72.32538142756442 H 0.0 **** 0.06
24933 H 13.657577961009252 152.96697108331904 73.81136182495005 H 0.0 **** 0.06
24934 H 15.23644933254053 153.6287225090781 73.31903063021493 H 0.0 **** 0.06
24935 H 14.496293804856919 152.3040668604961 72.38775254606044 H 0.0 **** 0.06
24936 C 132.4123101720446 35.187981679220954 11.893421694837969 C 0.0 **** -0.24
24937 H 133.10486641869616 36.01738733853236 12.031439476311448 H 0.0 **** 0.06
24938 H 131.42052082827485 35.57686481604959 11.662292585338633 H 0.0 **** 0.06
24939 H 132.36685675834894 34.59687984542137 12.808501739097807 H 0.0 **** 0.06
24940 H 132.75802967004472 34.55943053744292 11.071721385896922 H 0.0 **** 0.06
24941 C 2.429372737351372 59.40825779014392 137.41588157488894 C 0.0 **** -0.24
24942 H 2.6873178748094517 59.88203582269307 136.46854396435293 H 0.0 **** 0.06
24943 H 1.4640727165210023 59.78286048902146 137.75809434211357 H 0.0 **** 0.06
24944 H 3.193157581569068 59.64007254918613 138.15741475093625 H 0.0 **** 0.06
24945 H 2.3727481495403424 58.32877296864115 137.27826612561967 H 0.0 **** 0.06
24946 C 145.21934673564834 143.2300358774462 108.1524368215924 C 0.0 **** -0.24
24947 H 144.54170331012108 143.18321317030433 109.00438567622658 H 0.0 **** 0.06
24948 H 145.44738825360187 144.2728035102862 107.92643979393594 H 0.0 **** 0.06
24949 H 144.74766356341993 142.7656017321152 107.28708791351048 H 0.0 **** 0.06
24950 H 146.14120518138188 142.7004100130854 108.39148971687726 H 0.0 **** 0.06
24951 C 41.856393290625434 32.03188859170168 145.960122613183 C 0.0 **** -0.24
24952 H 41.779886185007285 33.06412440504374 146.30454357846014 H 0.0 **** 0.06
24953 H 42.395730766304595 32.00545585756958 145.01378376013432 H 0.0 **** 0.06
24954 H 40.856103500642604 31.621094520980066 145.82152810884259 H 0.0 **** 0.06
24955 H 42.393323155112256 31.44111830910495 146.702572384406 H 0.0 **** 0.06
24956 C 62.176439629920324 93.67646733076589 27.59203594731173 C 0.0 **** -0.24
24957 H 62.752134848456805 92.76284838568905 27.735995165956894 H 0.0 **** 0.06
24958 H 61.56096096786567 93.58060850155296 26.697037631575142 H 0.0 **** 0.06
24959 H 62.85645323342797 94.51999054425531 27.47605352570949 H 0.0 **** 0.06
24960 H 61.53506057926124 93.84260564517929 28.45825351003677 H 0.0 **** 0.06
24961 C 59.889170272494994 65.67718735455706 71.7590042352065 C 0.0 **** -0.24
24962 H 60.06635845350847 64.85064067606103 72.44715159826055 H 0.0 **** 0.06
24963 H 59.40346634284187 66.49505320247434 72.2923643754134 H 0.0 **** 0.06
24964 H 59.24591176289651 65.34160288050323 70.94530440191761 H 0.0 **** 0.06
24965 H 60.840031255051755 66.02233161799843 71.35237700984666 H 0.0 **** 0.06
24966 C 8.769052411430117 39.291072882805224 48.51779248893524 C 0.0 **** -0.24
24967 H 9.421930182569724 39.901351923295266 49.14209688181552 H 0.0 **** 0.06
24968 H 9.36995396343874 38.73657548935992 47.798390125420184 H 0.0 **** 0.06
24969 H 8.068855286838499 39.936216350967086 47.98723830297888 H 0.0 **** 0.06
24970 H 8.215310710565454 38.59341271332087 49.14526539014463 H 0.0 **** 0.06
24971 C 117.39525942149328 67.65605706541274 129.57418841094042 C 0.0 **** -0.24
24972 H 117.92313165067412 67.18249329882565 130.40171914328488 H 0.0 **** 0.06
24973 H 116.31982615200332 67.60377448795543 129.750978525472 H 0.0 **** 0.06
24974 H 117.63588722416807 67.13832373765604 128.6451758462611 H 0.0 **** 0.06
24975 H 117.7006564801992 68.69962834002649 129.49808001979713 H 0.0 **** 0.06
24976 C 128.3344885102539 91.84716302257732 78.33541757630276 C 0.0 **** -0.24
24977 H 128.18712659359477 91.51952893516766 77.30609680995423 H 0.0 **** 0.06
24978 H 129.38182651571748 91.7165825148592 78.6117520772689 H 0.0 **** 0.06
24979 H 127.70695659547243 91.25120102000416 78.999247290645 H 0.0 **** 0.06
24980 H 128.06279451598652 92.89785064456305 78.42569871673996 H 0.0 **** 0.06
24981 C 50.60993562816088 110.34225334104414 151.1456315788442 C 0.0 **** -0.24
24982 H 49.854810096584515 110.67659825886622 151.85789192452168 H 0.0 **** 0.06
24983 H 51.59033863112103 110.35497770246988 151.62364930985026 H 0.0 **** 0.06
24984 H 50.616655484306875 111.01011807569208 150.28454367432028 H 0.0 **** 0.06
24985 H 50.377725580501135 109.32949365270858 150.81872774880802 H 0.0 **** 0.06
24986 C 81.32636857431748 113.99756015445487 86.03853917770387 C 0.0 **** -0.24
24987 H 81.40574508707635 114.23314725161273 84.97706145400839 H 0.0 **** 0.06
24988 H 80.51883897908277 113.28234632789932 86.1921815059765 H 0.0 **** 0.06
24989 H 81.1164808670443 114.90980663556257 86.59752431374976 H 0.0 **** 0.06
24990 H 82.26550334209658 113.56660066867082 86.38636626552817 H 0.0 **** 0.06
24991 C 74.4069454939625 76.35432614866704 48.057386490356066 C 0.0 **** -0.24
24992 H 74.82427395859473 77.31482352680396 48.358887038582935 H 0.0 **** 0.06
24993 H 73.46264953248328 76.19004622994825 48.57723659013128 H 0.0 **** 0.06
24994 H 75.10660090376376 75.55857786564616 48.31312431411099 H 0.0 **** 0.06
24995 H 74.23436629414735 76.3549044047495 46.98124201383936 H 0.0 **** 0.06
24996 C 41.948495458728985 14.938644127804366 66.63339540085889 C 0.0 **** -0.24
24997 H 42.13042316042578 15.150329132815102 67.68647117635473 H 0.0 **** 0.06
24998 H 42.47365092234915 14.02621308593561 66.34997485611972 H 0.0 **** 0.06
24999 H 42.311312534894 15.770078020741664 66.02797790237655 H 0.0 **** 0.06
25000 H 40.878946408028526 14.80915731740177 66.46796006896152 H 0.0 **** 0.06
25001 C 47.274341775283006 68.55039136746133 61.30523151082261 C 0.0 **** -0.24
25002 H 47.761255309274404 67.97301368767292 62.09180135043178 H 0.0 **** 0.06
25003 H 46.280652520241105 68.14218663102753 61.11830788934944 H 0.0 **** 0.06
25004 H 47.86799474104623 68.495883442046 60.39361215594006 H 0.0 **** 0.06
25005 H 47.18686252940006 69.59017571127336 61.62060234121073 H 0.0 **** 0.06
25006 C 6.256706872951099 8.573462695483414 157.14437695008593 C 0.0 **** -0.24
25007 H 7.060123260048016 8.245056220805175 156.48507038286886 H 0.0 **** 0.06
25008 H 5.458120454390269 9.017314475905202 156.55049803571478 H 0.0 **** 0.06
25009 H 6.642980512867325 9.31280783669802 157.84649610986835 H 0.0 **** 0.06
25010 H 5.867915590531112 7.717863984921344 157.6954495446578 H 0.0 **** 0.06
25011 C 7.082158479517979 160.65077881767633 154.2442369270678 C 0.0 **** -0.24
25012 H 6.725281171323694 160.52428788994217 155.26612364939413 H 0.0 **** 0.06
25013 H 6.725074491142671 159.82442484744533 153.62992187231634 H 0.0 **** 0.06
25014 H 8.172239540914738 160.66178283844368 154.23943519441934 H 0.0 **** 0.06
25015 H 6.707525179662802 161.59176230587317 153.84290067860914 H 0.0 **** 0.06
25016 C 133.7803290120226 12.40821312800631 77.02225606601327 C 0.0 **** -0.24
25017 H 133.97664600671408 11.426242774020409 77.45187414702892 H 0.0 **** 0.06
25018 H 134.72595734192288 12.924189423329267 76.84923164847885 H 0.0 **** 0.06
25019 H 133.1687805617807 12.99081963722415 77.711272035511 H 0.0 **** 0.06
25020 H 133.25181324519218 12.292091092090288 76.07554140865312 H 0.0 **** 0.06
25021 C 45.38002997022937 158.15389410083128 96.3580415123469 C 0.0 **** -0.24
25022 H 44.57508052160972 158.8100737254951 96.6865342680795 H 0.0 **** 0.06
25023 H 45.596724882553644 157.42487645430222 97.13945911525741 H 0.0 **** 0.06
25024 H 46.27260884586599 158.74743118756473 96.15678899656969 H 0.0 **** 0.06
25025 H 45.07739388250445 157.63458817378825 95.44828405383883 H 0.0 **** 0.06
25026 C 89.34933512290007 16.875521091229075 14.805433094394118 C 0.0 **** -0.24
25027 H 90.17473464957718 16.19025773372033 14.615850476037394 H 0.0 **** 0.06
25028 H 88.47912310298366 16.310938645340173 15.140057592729477 H 0.0 **** 0.06
25029 H 89.10424757792748 17.412043994719454 13.88859442931573 H 0.0 **** 0.06
25030 H 89.63923516111188 17.58884399113623 15.5772298794937 H 0.0 **** 0.06
25031 C 112.1935979745291 103.34509582862819 140.49689958976495 C 0.0 **** -0.24
25032 H 112.39933147002012 102.45722017841507 139.89902049270538 H 0.0 **** 0.06
25033 H 111.73621321491353 103.04910158426873 141.44069852429485 H 0.0 **** 0.06
25034 H 111.51377749819397 104.00072426698515 139.9528809113948 H 0.0 **** 0.06
25035 H 113.12689325226248 103.87332629134607 140.69417702231715 H 0.0 **** 0.06
25036 C 160.8439896887818 99.85953638201107 52.346553378635534 C 0.0 **** -0.24
25037 H 160.3359352466919 98.94181853337125 52.64114370449478 H 0.0 **** 0.06
25038 H 160.76048104212538 100.59419307838542 53.14805180673301 H 0.0 **** 0.06
25039 H 160.38254522857727 100.25608573401607 51.442313106721826 H 0.0 **** 0.06
25040 H 161.8953502060642 99.6473292183116 52.1555088768463 H 0.0 **** 0.06
25041 C 105.78509175581328 149.6935985863497 143.9529830559876 C 0.0 **** -0.24
25042 H 105.86780677854861 148.6170420274993 144.10166073099606 H 0.0 **** 0.06
25043 H 106.59898175123297 150.19640032824748 144.4773363739913 H 0.0 **** 0.06
25044 H 104.82932440000206 150.04281401056963 144.3448340885891 H 0.0 **** 0.06
25045 H 105.8451172964975 149.91861794140465 142.88825770481765 H 0.0 **** 0.06
25046 C 162.6215645044196 134.95625872140735 5.809134898319513 C 0.0 **** -0.24
25047 H 163.07291165340843 135.9163023987693 5.5592034329698095 H 0.0 **** 0.06
25048 H 163.40633316310272 134.21731153699477 5.970128868719087 H 0.0 **** 0.06
25049 H 161.9794520150054 134.63264557115733 4.990748744829034 H 0.0 **** 0.06
25050 H 162.02853821966022 135.0602085740973 6.717454276261435 H 0.0 **** 0.06
25051 C 61.058907336470526 6.94996093080249 0.31388199649967063 C 0.0 **** -0.24
25052 H 61.48702520598667 7.060929081758616 1.3100059887458926 H 0.0 **** 0.06
25053 H 61.385875367684775 6.004487114154557 -0.11984147523806499 H 0.0 **** 0.06
25054 H 61.3910381717305 7.774583553125922 -0.3178937039848151 H 0.0 **** 0.06
25055 H 59.97080720814381 6.960926673647492 0.3830393688020415 H 0.0 **** 0.06
25056 C 74.14885517147741 70.92582864150535 46.68917916778891 C 0.0 **** -0.24
25057 H 73.36558256600682 70.17377209520114 46.600023119484234 H 0.0 **** 0.06
25058 H 73.88259251938564 71.63571232432784 47.47355106443962 H 0.0 **** 0.06
25059 H 74.25629733604424 71.4534737474591 45.741744914803164 H 0.0 **** 0.06
25060 H 75.09037437539808 70.43999913344595 46.94299228342774 H 0.0 **** 0.06
25061 C 21.301291728543 98.66618521306822 54.10338478684265 C 0.0 **** -0.24
25062 H 21.385737007790134 97.74286670958429 54.67494207901514 H 0.0 **** 0.06
25063 H 20.965364895818794 98.4370260696129 53.09105866933591 H 0.0 **** 0.06
25064 H 22.2728148809356 99.15876790835313 54.061660541934714 H 0.0 **** 0.06
25065 H 20.580024216658636 99.32645862523555 54.58471424393055 H 0.0 **** 0.06
25066 C 64.06601278054751 148.58688129469 157.56820815554062 C 0.0 **** -0.24
25067 H 64.22525437735192 147.71806264076753 158.20665792481861 H 0.0 **** 0.06
25068 H 65.0182871342522 148.90943637355 157.1487518487057 H 0.0 **** 0.06
25069 H 63.63528536193451 149.3967875256091 158.15765846620272 H 0.0 **** 0.06
25070 H 63.38264925950966 148.32331851860738 156.7609319832153 H 0.0 **** 0.06
25071 C 64.26275053595674 143.7702764787958 41.92037622130999 C 0.0 **** -0.24
25072 H 63.509374935140045 144.54627013992695 42.051950786547934 H 0.0 **** 0.06
25073 H 64.86226930443362 143.6886166984492 42.827134617164006 H 0.0 **** 0.06
25074 H 64.90711656734129 144.0284069576362 41.07943926950355 H 0.0 **** 0.06
25075 H 63.77125697407905 142.81697435865198 41.72240641111284 H 0.0 **** 0.06
25076 C 4.9788358104463555 100.45156924343863 61.1870232762476 C 0.0 **** -0.24
25077 H 4.976413375756323 99.42504918326483 61.55200069917062 H 0.0 **** 0.06
25078 H 4.397407369765489 101.07887561804489 61.862876473420485 H 0.0 **** 0.06
25079 H 4.535874284152271 100.48320067247334 60.19140919151701 H 0.0 **** 0.06
25080 H 6.003324588267162 100.81821870947644 61.14015418354778 H 0.0 **** 0.06
25081 C 75.07608638501512 23.862747136850544 113.55904864625404 C 0.0 **** -0.24
25082 H 76.04424425436287 23.866618769695656 113.05791670980909 H 0.0 **** 0.06
25083 H 74.91095847116763 22.889421277406605 114.0226804441944 H 0.0 **** 0.06
25084 H 74.28970771471042 24.05588310092491 112.8286720491572 H 0.0 **** 0.06
25085 H 75.05958515509202 24.638516770463255 114.32381462768075 H 0.0 **** 0.06
25086 C 68.89179523345962 30.81055934314378 99.15462060302605 C 0.0 **** -0.24
25087 H 69.73612194870188 31.499054804978016 99.17037574476547 H 0.0 **** 0.06
25088 H 68.83778204675933 30.280692809540596 100.10659851429239 H 0.0 **** 0.06
25089 H 69.02389500681092 30.092700146645313 98.34551946033218 H 0.0 **** 0.06
25090 H 67.96978286074632 31.370126946634798 98.99816253991185 H 0.0 **** 0.06
25091 C 97.56838693180856 9.223114580332926 45.51076140691275 C 0.0 **** -0.24
25092 H 97.70946041017166 9.02765778756605 44.44819623572077 H 0.0 **** 0.06
25093 H 97.0618915522829 8.374217525206191 45.971080975328434 H 0.0 **** 0.06
25094 H 96.96319583222541 10.120788451386645 45.637923564910125 H 0.0 **** 0.06
25095 H 98.5387076581035 9.367788254794725 45.984901730642775 H 0.0 **** 0.06
25096 C 88.8667546945255 66.95137999084513 91.9743162564022 C 0.0 **** -0.24
25097 H 88.14833374800257 66.2773474186283 92.44130480434802 H 0.0 **** 0.06
25098 H 88.96428368941606 67.8530160756834 92.5796181184068 H 0.0 **** 0.06
25099 H 88.5180949446626 67.21795398894938 90.9769324200222 H 0.0 **** 0.06
25100 H 89.83459189418096 66.45613737551005 91.90037206867552 H 0.0 **** 0.06
25101 C 9.091860994289 28.290166854532345 93.74329341038788 C 0.0 **** -0.24
25102 H 8.01927263627644 28.405223363211434 93.89619546599067 H 0.0 **** 0.06
25103 H 9.564075492418532 29.27234581249877 93.72472420698233 H 0.0 **** 0.06
25104 H 9.27166976708336 27.782951063710982 92.79530300527367 H 0.0 **** 0.06
25105 H 9.513657333263396 27.69945466573995 94.55701808217165 H 0.0 **** 0.06
25106 C 14.279976242985363 126.00164476133344 48.22005194453547 C 0.0 **** -0.24
25107 H 13.736700519652786 126.9242211823894 48.01647866372029 H 0.0 **** 0.06
25108 H 15.237105033638507 126.02054694616862 47.69838149662027 H 0.0 **** 0.06
25109 H 13.69306797795705 125.15109353225901 47.8731814289814 H 0.0 **** 0.06
25110 H 14.451499237438881 125.91152252963172 49.29223088094798 H 0.0 **** 0.06
25111 C 23.388399959947414 77.39267081340014 95.25930286420433 C 0.0 **** -0.24
25112 H 23.086126106462658 76.61492455416118 94.55905856088128 H 0.0 **** 0.06
25113 H 23.546675661567605 78.32651340701977 94.71902821560465 H 0.0 **** 0.06
25114 H 24.314938372212367 77.09727179890305 95.75272649750238 H 0.0 **** 0.06
25115 H 22.60730634744916 77.53255173732339 96.00715510718969 H 0.0 **** 0.06
25116 C 92.51239795964204 128.56946768691103 43.92337730835284 C 0.0 **** -0.24
25117 H 92.94317434854571 127.73592849263522 44.4784277388337 H 0.0 **** 0.06
25118 H 91.42798820353697 128.55975255916056 44.03544857163523 H 0.0 **** 0.06
25119 H 92.76958865607281 128.47336578005846 42.86828525542276 H 0.0 **** 0.06
25120 H 92.91052176915481 129.50734531484483 44.31035384014213 H 0.0 **** 0.06
25121 C 135.17124101462082 132.1956425151222 135.66267579581728 C 0.0 **** -0.24
25122 H 134.0969113955021 132.2319207954493 135.8446885087354 H 0.0 **** 0.06
25123 H 135.36109891465975 132.2839552629152 134.5928175329948 H 0.0 **** 0.06
25124 H 135.5693061996409 131.24766196249794 136.02500416258434 H 0.0 **** 0.06
25125 H 135.65587565621854 133.01803468513364 136.1872624780039 H 0.0 **** 0.06
25126 C 42.351110074022984 154.65737012570443 98.30366282216846 C 0.0 **** -0.24
25127 H 41.39671487595024 155.183648572435 98.29525731766452 H 0.0 **** 0.06
25128 H 42.851102824717685 154.79545203930715 97.34486487793751 H 0.0 **** 0.06
25129 H 42.1772353472129 153.59408352968993 98.47370722526114 H 0.0 **** 0.06
25130 H 42.978674324638206 155.05446959683795 99.10189649433565 H 0.0 **** 0.06
25131 C 79.67830178786767 150.57730252964996 7.158253161147627 C 0.0 **** -0.24
25132 H 79.49699593589753 151.61394137174364 7.441198276572095 H 0.0 **** 0.06
25133 H 79.57267480310918 150.47160577701902 6.078664357669652 H 0.0 **** 0.06
25134 H 78.95587462420184 149.93287334158111 7.659227085181385 H 0.0 **** 0.06
25135 H 80.68766178826195 150.2907896282562 7.453922925167376 H 0.0 **** 0.06
25136 C 31.807287608462104 75.20215935949726 55.2533064095026 C 0.0 **** -0.24
25137 H 31.6299744940992 74.32064580624257 54.637556657346124 H 0.0 **** 0.06
25138 H 32.328674836542916 74.90866383695699 56.165318822964224 H 0.0 **** 0.06
25139 H 30.853641123888394 75.66318171695004 55.51205850989453 H 0.0 **** 0.06
25140 H 32.417781365053145 75.9154501609936 54.7002065626785 H 0.0 **** 0.06
25141 C 7.841862632228043 101.59181047289957 104.78196646428174 C 0.0 **** -0.24
25142 H 7.251910557854444 101.99455249688711 105.60581917829813 H 0.0 **** 0.06
25143 H 8.436660888391373 102.389265499716 104.3375203540335 H 0.0 **** 0.06
25144 H 7.174067480937197 101.17312703741922 104.02956786648329 H 0.0 **** 0.06
25145 H 8.502535495137408 100.81023360945085 105.15737002843127 H 0.0 **** 0.06
25146 C 122.8641495123801 115.27116419225368 62.46707875306316 C 0.0 **** -0.24
25147 H 123.11883538487632 116.11938148964353 63.10242777191854 H 0.0 **** 0.06
25148 H 123.11774427066086 115.50360908719378 61.43286024584643 H 0.0 **** 0.06
25149 H 121.79599216868814 115.06772375824818 62.5433790602666 H 0.0 **** 0.06
25150 H 123.42530902580131 114.39441963367426 62.791106297682404 H 0.0 **** 0.06
25151 C 146.38514276004173 94.33473965664265 148.46369346074502 C 0.0 **** -0.24
25152 H 146.64586728758155 93.7744919222223 149.3612178513209 H 0.0 **** 0.06
25153 H 146.0827777753082 95.34506740652284 148.7413013577231 H 0.0 **** 0.06
25154 H 145.56297584236034 93.83712999349932 147.94991625067846 H 0.0 **** 0.06
25155 H 147.2500310069792 94.38304860735164 147.80186460826909 H 0.0 **** 0.06
25156 C 45.34640738670335 68.0390735523012 71.43842090895234 C 0.0 **** -0.24
25157 H 45.13822780781946 69.0068007819291 71.89512884338893 H 0.0 **** 0.06
25158 H 44.63818147864255 67.86010615906258 70.62873169410112 H 0.0 **** 0.06
25159 H 45.24682457757682 67.25433446205922 72.18837136195644 H 0.0 **** 0.06
25160 H 46.361465854931126 68.03499763968416 71.0410878586062 H 0.0 **** 0.06
25161 C 96.96675121587191 140.14349511804417 69.21702266985602 C 0.0 **** -0.24
25162 H 97.84969477856703 139.5227074209995 69.06166441805846 H 0.0 **** 0.06
25163 H 96.07946370212 139.5113685235912 69.24738190002216 H 0.0 **** 0.06
25164 H 96.87733228580373 140.85747784844298 68.39935359335843 H 0.0 **** 0.06
25165 H 97.06299681056441 140.6810715734845 70.1596987326572 H 0.0 **** 0.06
25166 C 113.25865825413135 120.66959876886676 23.664588796735814 C 0.0 **** -0.24
25167 H 112.41465141826822 120.8258264998675 22.992372143479372 H 0.0 **** 0.06
25168 H 114.14523838832542 120.41924605098868 23.0811566514613 H 0.0 **** 0.06
25169 H 113.03163062495724 119.85338670945393 24.348955748887988 H 0.0 **** 0.06
25170 H 113.44296420891618 121.5812907997121 24.23301717098383 H 0.0 **** 0.06
25171 C 108.04062196220005 75.23552141820775 137.82269588498886 C 0.0 **** -0.24
25172 H 108.23669674340357 74.18617769180443 138.04243953672176 H 0.0 **** 0.06
25173 H 107.28759044171872 75.61646507804018 138.51290188821181 H 0.0 **** 0.06
25174 H 107.6771979119913 75.32961260708156 136.79966917660937 H 0.0 **** 0.06
25175 H 108.96173400538899 75.80865241552517 137.9354937857777 H 0.0 **** 0.06
25176 C 123.88866166430086 47.08768203769479 10.104930269606939 C 0.0 **** -0.24
25177 H 124.2401897694923 46.19823158069349 9.581864559172118 H 0.0 **** 0.06
25178 H 123.5999673154246 47.84613264024368 9.376967272612262 H 0.0 **** 0.06
25179 H 124.6878439798856 47.47668309596423 10.736884933819567 H 0.0 **** 0.06
25180 H 123.0295346744224 46.829637871123026 10.723197076244105 H 0.0 **** 0.06
25181 C 24.72578552367932 55.00209249481634 48.48684915350151 C 0.0 **** -0.24
25182 H 23.940772674276502 54.98944377858041 49.24253736505108 H 0.0 **** 0.06
25183 H 24.460176895127802 55.706303915082515 47.69928128572974 H 0.0 **** 0.06
25184 H 24.836921137074995 54.00468367187757 48.06136545865823 H 0.0 **** 0.06
25185 H 25.66635406613446 55.307188191136504 48.94601938735525 H 0.0 **** 0.06
25186 C 157.12055402451875 15.539790361122101 155.08786164657158 C 0.0 **** -0.24
25187 H 156.88367614444718 15.047216566839374 154.14412607900158 H 0.0 **** 0.06
25188 H 156.222911247693 16.014610219039817 155.48495789155777 H 0.0 **** 0.06
25189 H 157.8877292026404 16.294531386053364 154.92048473637527 H 0.0 **** 0.06
25190 H 157.48668891897094 14.800735640599065 155.80007242779953 H 0.0 **** 0.06
25191 C 59.750077507383224 31.165346475098204 30.014831165961624 C 0.0 **** -0.24
25192 H 59.54975233405162 30.135771714307644 29.717203022239858 H 0.0 **** 0.06
25193 H 60.8271143995928 31.323678026820133 30.07376775898976 H 0.0 **** 0.06
25194 H 59.30064102201894 31.35526358152569 30.99009688744306 H 0.0 **** 0.06
25195 H 59.322054234582396 31.845299963878745 29.279002956939422 H 0.0 **** 0.06
25196 C 119.38426910123974 66.43808418678076 109.28163362205615 C 0.0 **** -0.24
25197 H 119.00134978389246 66.65414299659555 110.27935966814354 H 0.0 **** 0.06
25198 H 118.8037203961365 65.63013274902181 108.83711758134362 H 0.0 **** 0.06
25199 H 120.43064989047593 66.13942696684656 109.35129703247588 H 0.0 **** 0.06
25200 H 119.30161264741935 67.33029028907382 108.66054662896022 H 0.0 **** 0.06
25201 C 3.7783514813507395 44.837768713716 33.59735911256371 C 0.0 **** -0.24
25202 H 3.154322341317055 43.951415911124684 33.48106976929682 H 0.0 **** 0.06
25203 H 3.212294452110484 45.61577560066701 34.11004965610471 H 0.0 **** 0.06
25204 H 4.08424112196667 45.19833667603882 32.614229319925926 H 0.0 **** 0.06
25205 H 4.6625558737434005 44.58553099775361 34.18185167193661 H 0.0 **** 0.06
25206 C 113.33256020965504 65.83495331757801 61.18545836483827 C 0.0 **** -0.24
25207 H 114.12609820208121 65.1011175764338 61.31963868662736 H 0.0 **** 0.06
25208 H 113.03854497691847 66.23388207143118 62.1569457742503 H 0.0 **** 0.06
25209 H 112.47311171310463 65.35826388309277 60.712962489763896 H 0.0 **** 0.06
25210 H 113.69116602990587 66.64631846610298 60.55273860735815 H 0.0 **** 0.06
25211 C 52.61424830462036 63.72121097394866 60.49076056115267 C 0.0 **** -0.24
25212 H 52.73725516257073 63.32976036661553 59.48057067141529 H 0.0 **** 0.06
25213 H 52.30245926659525 62.91502828964484 61.156303190284476 H 0.0 **** 0.06
25214 H 51.85609650604785 64.50418129852915 60.48741849901225 H 0.0 **** 0.06
25215 H 53.56215103474757 64.13293411709792 60.838102382727385 H 0.0 **** 0.06
25216 C 51.98941397710006 37.624896297977386 152.62648177687055 C 0.0 **** -0.24
25217 H 52.73898337435955 36.98425336042786 153.09065328614463 H 0.0 **** 0.06
25218 H 52.447696602897054 38.18919751664575 151.81288599599196 H 0.0 **** 0.06
25219 H 51.59141221858181 38.31598618530967 153.36981228027574 H 0.0 **** 0.06
25220 H 51.18111909562758 37.00959483065111 152.23205139393383 H 0.0 **** 0.06
25221 C 155.58464181780823 7.889386593577967 102.23902275849014 C 0.0 **** -0.24
25222 H 156.20634939817356 6.995508231948293 102.18228621979756 H 0.0 **** 0.06
25223 H 154.69975272544605 7.755882513373763 101.61589849970085 H 0.0 **** 0.06
25224 H 156.15285434882597 8.749075304259463 101.88422184596664 H 0.0 **** 0.06
25225 H 155.28084666943963 8.056213190776191 103.2720349675601 H 0.0 **** 0.06
25226 C 156.80082529292417 25.79249419768808 18.021896770851185 C 0.0 **** -0.24
25227 H 156.2809369219611 25.969654763308775 17.08043829116724 H 0.0 **** 0.06
25228 H 156.7982139163415 26.705689978454572 18.6163944413575 H 0.0 **** 0.06
25229 H 157.82928624839425 25.493198314493696 17.81904730938038 H 0.0 **** 0.06
25230 H 156.29481120116395 24.99899175377064 18.571891742665827 H 0.0 **** 0.06
25231 C 33.872496848463896 126.779194768819 151.10711974753434 C 0.0 **** -0.24
25232 H 33.65033941590531 126.4987584656972 150.07675696795312 H 0.0 **** 0.06
25233 H 34.02978783871221 125.88010990762731 151.70222628154872 H 0.0 **** 0.06
25234 H 33.03659388452377 127.34562753255966 151.51672564647993 H 0.0 **** 0.06
25235 H 34.773101665939194 127.39322680432028 151.13010875894614 H 0.0 **** 0.06
25236 C 115.01692606265357 131.5772694802469 93.1671232553577 C 0.0 **** -0.24
25237 H 114.15978072757113 131.85349949619132 93.78069614406104 H 0.0 **** 0.06
25238 H 114.8375856542362 131.88301265778983 92.13514454470248 H 0.0 **** 0.06
25239 H 115.15840716662277 130.49752370446703 93.2062255765893 H 0.0 **** 0.06
25240 H 115.90928073977375 132.07513519678014 93.54398351692123 H 0.0 **** 0.06
25241 C 15.318689224490527 144.96009243348823 81.19549237145964 C 0.0 **** -0.24
25242 H 14.2449928847372 145.0441708612738 81.02834023787926 H 0.0 **** 0.06
25243 H 15.731885415200452 145.94809763047826 81.40320504027862 H 0.0 **** 0.06
25244 H 15.793441454144272 144.54788972613576 80.30499132701794 H 0.0 **** 0.06
25245 H 15.503302603048326 144.30224541788863 82.04467377490347 H 0.0 **** 0.06
25246 C 144.50442550305854 5.701069551771553 114.96865940590465 C 0.0 **** -0.24
25247 H 143.7630431438303 4.979175239964725 115.30969844365666 H 0.0 **** 0.06
25248 H 144.9825203216443 6.1649976172706005 115.83163736822416 H 0.0 **** 0.06
25249 H 144.01582087935745 6.4684524312877585 114.36826046065329 H 0.0 **** 0.06
25250 H 145.25612980582312 5.19215164034371 114.36635133008133 H 0.0 **** 0.06
25251 C 79.70163265992238 4.629870948801482 126.85306046835797 C 0.0 **** -0.24
25252 H 80.37855061223132 5.323143402888064 127.35231015131598 H 0.0 **** 0.06
25253 H 80.21565088881394 4.160842457716427 126.01350140564205 H 0.0 **** 0.06
25254 H 78.82980013099404 5.172090983426926 126.48781217840562 H 0.0 **** 0.06
25255 H 79.38275908086416 3.8620459726809884 127.55892613841897 H 0.0 **** 0.06
25256 C 152.2026750967155 137.4212845006885 150.97386187773756 C 0.0 **** -0.24
25257 H 153.21874836261352 137.81408892569675 150.93491754066602 H 0.0 **** 0.06
25258 H 151.5353202781105 138.0858874074459 150.4239105883628 H 0.0 **** 0.06
25259 H 151.8783957390561 137.3565173427579 152.01235740540622 H 0.0 **** 0.06
25260 H 152.1798962976211 136.4289914063441 150.52280488281454 H 0.0 **** 0.06
25261 C 51.552923271221744 98.32177892708603 119.33614419499543 C 0.0 **** -0.24
25262 H 52.09757840480779 98.02648980675212 120.23337772091679 H 0.0 **** 0.06
25263 H 50.83510297830804 99.10264295810455 119.58727413627383 H 0.0 **** 0.06
25264 H 51.02504583093969 97.45809660084274 118.93176924047009 H 0.0 **** 0.06
25265 H 52.256053291091405 98.6989756071197 118.59305757951154 H 0.0 **** 0.06
25266 C 134.768330933543 103.25316595919526 34.41050456816221 C 0.0 **** -0.24
25267 H 135.73964925828713 102.76193133346706 34.462003013845816 H 0.0 **** 0.06
25268 H 134.39716079535438 103.428838227243 35.41983098538395 H 0.0 **** 0.06
25269 H 134.0675178778021 102.61694875335462 33.869822047425814 H 0.0 **** 0.06
25270 H 134.87057354749288 104.20609325908876 33.88992229031818 H 0.0 **** 0.06
25271 C 101.71714135273149 99.52530284614187 62.534954601161914 C 0.0 **** -0.24
25272 H 101.23132167316291 98.83567595711139 61.84459827891567 H 0.0 **** 0.06
25273 H 102.1211891207142 100.37104620782134 61.978339445998785 H 0.0 **** 0.06
25274 H 102.52717651602754 99.00994403883607 63.05212983612189 H 0.0 **** 0.06
25275 H 100.99053566410834 99.88342493362833 63.263337439221246 H 0.0 **** 0.06
25276 C 58.05745624696647 67.27354583113193 29.865801040139445 C 0.0 **** -0.24
25277 H 57.330162810302625 68.07767697991177 29.98111032812497 H 0.0 **** 0.06
25278 H 57.78557196077509 66.44208236479311 30.51759652567307 H 0.0 **** 0.06
25279 H 59.04826691905339 67.63821143691062 30.135295084891794 H 0.0 **** 0.06
25280 H 58.06359074433851 66.93609377986569 28.82924407364743 H 0.0 **** 0.06
25281 C 33.701494498951774 132.29804533323565 53.83598588037245 C 0.0 **** -0.24
25282 H 33.68139485776413 132.8406200599155 52.89101735397668 H 0.0 **** 0.06
25283 H 34.041205156738044 132.9643051011205 54.630176981570685 H 0.0 **** 0.06
25284 H 34.38295453436345 131.45107437829859 53.75548568577295 H 0.0 **** 0.06
25285 H 32.69915081439615 131.93699470153786 54.06811183833446 H 0.0 **** 0.06
25286 C 127.67828590670226 145.66032160826714 2.244376142919144 C 0.0 **** -0.24
25287 H 126.89004886826484 145.7974409938677 1.5034527116840621 H 0.0 **** 0.06
25288 H 127.25051451206576 145.23852591846912 3.1549369282662383 H 0.0 **** 0.06
25289 H 128.13530401079873 146.6232015735236 2.470423595289745 H 0.0 **** 0.06
25290 H 128.4344199960121 144.9824978364078 1.8499943640486833 H 0.0 **** 0.06
25291 C 39.00172300423645 6.110193028958342 79.77488573861072 C 0.0 **** -0.24
25292 H 39.3133569886261 6.953925882404448 79.15949888823503 H 0.0 **** 0.06
25293 H 38.007824580295804 6.303443208271965 80.17857639779135 H 0.0 **** 0.06
25294 H 39.707882287109555 5.979246008769373 80.5951776492556 H 0.0 **** 0.06
25295 H 38.97929763887069 5.205503433603745 79.16730389593675 H 0.0 **** 0.06
25296 C 157.08173189998098 161.55388663548888 102.85847478686787 C 0.0 **** -0.24
25297 H 158.07327652397382 161.40291690682005 103.28538140262015 H 0.0 **** 0.06
25298 H 156.82604278531878 160.7035027284216 102.22553310343994 H 0.0 **** 0.06
25299 H 157.0788837633414 162.46543762957805 102.26112102315608 H 0.0 **** 0.06
25300 H 156.3503445289602 161.64308154284336 103.66178396802877 H 0.0 **** 0.06
25301 C 120.39397261875004 0.24149797943671913 57.64561309220545 C 0.0 **** -0.24
25302 H 120.3959165132774 -0.6658218548378407 57.04074134901168 H 0.0 **** 0.06
25303 H 119.37356231355909 0.6147108676338036 57.737067063105485 H 0.0 **** 0.06
25304 H 121.01736867215439 0.9970604322782819 57.166794111417005 H 0.0 **** 0.06
25305 H 120.79049579039312 0.01774463946747673 58.63658115913739 H 0.0 **** 0.06
25306 C 82.28219470410086 10.130339401696062 102.104785727239 C 0.0 **** -0.24
25307 H 83.35650250822276 9.968477090469264 102.18939170684757 H 0.0 **** 0.06
25308 H 81.87612644889096 9.474571080243038 101.33474785158114 H 0.0 **** 0.06
25309 H 82.09218440470684 11.169568163820713 101.8353909625207 H 0.0 **** 0.06
25310 H 81.80553814259332 9.910250496714696 103.05911334407904 H 0.0 **** 0.06
25311 C 99.60561670060557 82.44866861457615 160.04098865066615 C 0.0 **** -0.24
25312 H 100.08066461887014 81.57801091767277 159.5890522592926 H 0.0 **** 0.06
25313 H 99.0170586443981 82.97292742692501 159.2876540716549 H 0.0 **** 0.06
25314 H 100.37082991032997 83.11593136580083 160.4349543305808 H 0.0 **** 0.06
25315 H 98.95150991951229 82.12580514738454 160.85182056908582 H 0.0 **** 0.06
25316 C 23.50750556960297 48.93292785297838 40.06997415643366 C 0.0 **** -0.24
25317 H 24.45512568014584 49.46401670342941 40.15969937338386 H 0.0 **** 0.06
25318 H 22.986581668520394 48.95577723988177 41.027252097063155 H 0.0 **** 0.06
25319 H 23.69701508250259 47.89826203406689 39.78307057771252 H 0.0 **** 0.06
25320 H 22.892085909459404 49.41290251976096 39.30897164574233 H 0.0 **** 0.06
25321 C 122.44809482148366 67.1316892150028 143.7090796469099 C 0.0 **** -0.24
25322 H 123.19829351178873 66.39888424629729 144.00691797736226 H 0.0 **** 0.06
25323 H 121.87967960463183 67.44752421467129 144.58395635525892 H 0.0 **** 0.06
25324 H 121.77328635687044 66.68460409870013 142.97913424493822 H 0.0 **** 0.06
25325 H 122.94206512269466 67.99572509379279 143.26485876559502 H 0.0 **** 0.06
25326 C 9.214566559299676 116.1255541119985 31.570225279544644 C 0.0 **** -0.24
25327 H 9.74784654450297 116.17828974152434 32.51872632227361 H 0.0 **** 0.06
25328 H 8.56475483887823 115.24981335997703 31.568045429890418 H 0.0 **** 0.06
25329 H 9.932169991069948 116.04798564167749 30.753526253582265 H 0.0 **** 0.06
25330 H 8.612488352800511 117.02526321639863 31.44109266106571 H 0.0 **** 0.06
25331 C 145.3673193219738 20.632726494332644 45.658994039058825 C 0.0 **** -0.24
25332 H 145.72735299934976 19.8429367586794 45.00074428573964 H 0.0 **** 0.06
25333 H 146.10442971573838 20.81942287213616 46.44026838277739 H 0.0 **** 0.06
25334 H 144.42591446386461 20.324339644735858 46.11423498048441 H 0.0 **** 0.06
25335 H 145.21060223489934 21.543830316307947 45.08167832652873 H 0.0 **** 0.06
25336 C 80.7135705746598 8.755035953559613 3.573524440020833 C 0.0 **** -0.24
25337 H 80.22255445986693 7.793604558336469 3.722603916185392 H 0.0 **** 0.06
25338 H 80.00875985792155 9.457039575435367 3.1286676033670346 H 0.0 **** 0.06
25339 H 81.56854043358766 8.627194948011052 2.910023831985086 H 0.0 **** 0.06
25340 H 81.05394298078363 9.141779600128729 4.534380230432475 H 0.0 **** 0.06
25341 C 84.4626256186065 43.747845826993114 95.74095497613342 C 0.0 **** -0.24
25342 H 83.51053999584651 44.156912830305885 96.07782584898428 H 0.0 **** 0.06
25343 H 85.27603074360287 44.22223152615953 96.28923879159476 H 0.0 **** 0.06
25344 H 84.58297514328528 43.93930334394227 94.67438951395155 H 0.0 **** 0.06
25345 H 84.480331062801 42.672663754347695 95.92112685138085 H 0.0 **** 0.06
25346 C 45.40583447858779 103.81854094343953 17.921711875474813 C 0.0 **** -0.24
25347 H 45.66032873394482 104.35608744120401 18.83575964554924 H 0.0 **** 0.06
25348 H 44.32679885772825 103.67072082968372 17.876278377517927 H 0.0 **** 0.06
25349 H 45.90597949556957 102.84983237208354 17.918966851283066 H 0.0 **** 0.06
25350 H 45.73108028759907 104.39677184693153 17.057151856323763 H 0.0 **** 0.06
25351 C 125.12725710825805 42.77191531234139 154.23733407291445 C 0.0 **** -0.24
25352 H 125.60015131997156 43.011829175039026 155.18991019775098 H 0.0 **** 0.06
25353 H 124.34173704979094 42.03320491861355 154.396714275255 H 0.0 **** 0.06
25354 H 125.87452954074377 42.36662138418501 153.55372771210784 H 0.0 **** 0.06
25355 H 124.69565206947465 43.676292358202375 153.8081673066672 H 0.0 **** 0.06
25356 C 87.40872398637194 131.37215449916985 102.4013384869836 C 0.0 **** -0.24
25357 H 86.58151328841694 131.87037055453385 102.90599683809691 H 0.0 **** 0.06
25358 H 88.04035655986968 132.1182421698397 101.91673823280377 H 0.0 **** 0.06
25359 H 87.01674901549399 130.68611730053078 101.65136755466469 H 0.0 **** 0.06
25360 H 87.99764408867577 130.81632192311767 103.13079589482251 H 0.0 **** 0.06
25361 C 18.614286456393813 36.50407446539698 112.54325094806384 C 0.0 **** -0.24
25362 H 19.187123578971296 36.87613605543001 111.6942717745506 H 0.0 **** 0.06
25363 H 17.609992938987205 36.92819507268885 112.51826840167189 H 0.0 **** 0.06
25364 H 19.107991711490854 36.7955816073122 113.47018328532354 H 0.0 **** 0.06
25365 H 18.551894209016268 35.417200963544005 112.4918014947487 H 0.0 **** 0.06
25366 C 110.21260261794978 62.03965565638387 125.24679315516522 C 0.0 **** -0.24
25367 H 109.4402100655287 61.918460035288774 124.48745250993471 H 0.0 **** 0.06
25368 H 111.18264040222917 61.77761207350379 124.82414824666682 H 0.0 **** 0.06
25369 H 109.99553113987437 61.38758587093018 126.09311864733061 H 0.0 **** 0.06
25370 H 110.23163371986684 63.077164467120554 125.5825224850179 H 0.0 **** 0.06
25371 C 62.389655874118546 68.72608964290119 71.97697349881501 C 0.0 **** -0.24
25372 H 62.76876848581668 68.71340559504189 70.95532650261819 H 0.0 **** 0.06
25373 H 61.36104053696158 68.36390106942163 71.98750054481005 H 0.0 **** 0.06
25374 H 62.4204979387663 69.74538996434853 72.36289123672 H 0.0 **** 0.06
25375 H 63.00825527650156 68.08264549238216 72.60200568819948 H 0.0 **** 0.06
25376 C 107.83551893813251 82.97961501148819 18.678458616259967 C 0.0 **** -0.24
25377 H 108.82403562449414 82.83345410069455 19.11469436308645 H 0.0 **** 0.06
25378 H 107.07977305179213 82.90919460921504 19.460296806930543 H 0.0 **** 0.06
25379 H 107.65442035430416 82.21265015308336 17.925997960506045 H 0.0 **** 0.06
25380 H 107.78717627941867 83.96467319897204 18.213637973838708 H 0.0 **** 0.06
25381 C 144.79419858124447 21.363127747760203 10.622433583195054 C 0.0 **** -0.24
25382 H 144.70929819933062 22.407418279343126 10.922363666438912 H 0.0 **** 0.06
25383 H 145.82332660561673 21.02842263470596 10.759724913416328 H 0.0 **** 0.06
25384 H 144.51603077189236 21.26271711698176 9.57367374010363 H 0.0 **** 0.06
25385 H 144.12920743386837 20.754055056087452 11.234892636284968 H 0.0 **** 0.06
25386 C 78.07907898193665 50.62287790923352 85.05771686211364 C 0.0 **** -0.24
25387 H 77.90057645731669 51.658084179335845 84.76550168937706 H 0.0 **** 0.06
25388 H 78.30260727504047 50.0286148753774 84.17105094953672 H 0.0 **** 0.06
25389 H 77.18968197491486 50.22506294979661 85.54773943016693 H 0.0 **** 0.06
25390 H 78.92296868809957 50.58072956280387 85.74567653379029 H 0.0 **** 0.06
25391 C 70.6025236346099 128.8555576498375 13.36691423864837 C 0.0 **** -0.24
25392 H 71.4152976963598 129.57928497966273 13.309643659295517 H 0.0 **** 0.06
25393 H 70.1342706488295 128.91184210365475 14.350048555017409 H 0.0 **** 0.06
25394 H 70.99825387586583 127.85277615985464 13.208627508238962 H 0.0 **** 0.06
25395 H 69.86198042828795 129.07959702318442 12.598195813192731 H 0.0 **** 0.06
25396 C 61.92521385195431 50.655675433301695 153.43007495683872 C 0.0 **** -0.24
25397 H 62.028893443108814 50.58091552287998 154.51287982166238 H 0.0 **** 0.06
25398 H 60.86842533971435 50.71642631003955 153.17034967373522 H 0.0 **** 0.06
25399 H 62.365034554017484 49.77470827133244 152.96245388280963 H 0.0 **** 0.06
25400 H 62.43942303287383 51.55012079429498 153.07759476168135 H 0.0 **** 0.06
25401 C 123.03711754637146 52.744254954621056 33.652861264491776 C 0.0 **** -0.24
25402 H 122.71081592217612 53.22183842217487 32.72988776147267 H 0.0 **** 0.06
25403 H 123.94793434378303 53.226133940563045 34.010536129936554 H 0.0 **** 0.06
25404 H 123.23450678180441 51.688072185737894 33.46547570075498 H 0.0 **** 0.06
25405 H 122.2547380868534 52.83832876910003 34.40687611648383 H 0.0 **** 0.06
25406 C 93.67471151228233 91.27227211894721 18.047490008810883 C 0.0 **** -0.24
25407 H 92.81029020707518 91.88536476540159 18.302701830697345 H 0.0 **** 0.06
25408 H 93.34472878368064 90.3928816233026 17.49519517354753 H 0.0 **** 0.06
25409 H 94.18054261302359 90.96058230016763 18.9611623798325 H 0.0 **** 0.06
25410 H 94.36236942989012 91.85309149588997 17.43197045152192 H 0.0 **** 0.06
25411 C 161.6990398627812 32.68058890137051 66.29806704565232 C 0.0 **** -0.24
25412 H 162.37211379821395 32.90881983336676 67.12405006775782 H 0.0 **** 0.06
25413 H 160.70032951364237 33.0517776881109 66.53115806278316 H 0.0 **** 0.06
25414 H 161.65922830545873 31.60087971975051 66.14930878303784 H 0.0 **** 0.06
25415 H 162.06258908938065 33.159971104862905 65.38964121385209 H 0.0 **** 0.06
25416 C 72.80799824586575 88.41340645584937 113.65357586817268 C 0.0 **** -0.24
25417 H 72.67560354796444 87.33462581260368 113.72596216772035 H 0.0 **** 0.06
25418 H 71.83557757698162 88.90347833399137 113.70950865813805 H 0.0 **** 0.06
25419 H 73.28497129727833 88.65866557694123 112.70427372995928 H 0.0 **** 0.06
25420 H 73.43590866826361 88.75805478696525 114.47530629296293 H 0.0 **** 0.06
25421 C 95.4909555669251 11.722424691492677 17.84345400853121 C 0.0 **** -0.24
25422 H 94.43417577770742 11.472768595083636 17.92913432574707 H 0.0 **** 0.06
25423 H 95.6578467835235 12.290817860482122 16.9288812334147 H 0.0 **** 0.06
25424 H 96.07939703939871 10.805504238664497 17.813766197928686 H 0.0 **** 0.06
25425 H 95.79408206143057 12.320138146475017 18.703754447348473 H 0.0 **** 0.06
25426 C 100.84535904627484 155.6371211622771 61.670918256129184 C 0.0 **** -0.24
25427 H 100.87100138582349 156.7105839381304 61.48185473775291 H 0.0 **** 0.06
25428 H 101.35702578970267 155.11374204180268 60.86379418392356 H 0.0 **** 0.06
25429 H 99.80905545978169 155.30283500902118 61.72219696806539 H 0.0 **** 0.06
25430 H 101.34333587166913 155.42311127187696 62.61670401929875 H 0.0 **** 0.06
25431 C 50.994723686983946 64.64419311172367 131.45607269706952 C 0.0 **** -0.24
25432 H 51.10088031119244 63.73787729359026 130.8586479655221 H 0.0 **** 0.06
25433 H 51.06528277683799 64.39214526979708 132.5141394026232 H 0.0 **** 0.06
25434 H 50.02561425974113 65.09968868254555 131.25415554003234 H 0.0 **** 0.06
25435 H 51.78810832438165 65.34505026811661 131.19562321789365 H 0.0 **** 0.06
25436 C 20.303735637414604 92.47955198632047 53.60117872887281 C 0.0 **** -0.24
25437 H 20.828547943162448 93.11792762201547 54.3128896878257 H 0.0 **** 0.06
25438 H 20.146348032667447 91.49581803751032 54.04312047514388 H 0.0 **** 0.06
25439 H 20.89946169358751 92.38097506884607 52.694367901107725 H 0.0 **** 0.06
25440 H 19.3398247914202 92.92664135655487 53.35590976604149 H 0.0 **** 0.06
25441 C 125.97217241920612 97.10632286450715 51.94696863637506 C 0.0 **** -0.24
25442 H 125.79998751378494 98.16894086462315 51.772233873534404 H 0.0 **** 0.06
25443 H 125.06551002048602 96.54790737238784 51.71457181648559 H 0.0 **** 0.06
25444 H 126.23771409989982 96.94980492056004 52.99317638293765 H 0.0 **** 0.06
25445 H 126.7860756869836 96.76133826642683 51.309426521701866 H 0.0 **** 0.06
25446 C 44.15232128135759 102.49294978987317 151.6635085253567 C 0.0 **** -0.24
25447 H 43.482563242205046 101.965381475946 150.9846582560309 H 0.0 **** 0.06
25448 H 44.28304142511253 101.90694776161791 152.57279324321917 H 0.0 **** 0.06
25449 H 43.723033440777115 103.46314927441247 151.9152420977486 H 0.0 **** 0.06
25450 H 45.11864024045826 102.63730600876121 151.1812951096931 H 0.0 **** 0.06
25451 C 68.74553200659528 70.80509078591723 151.10691175996476 C 0.0 **** -0.24
25452 H 68.13757209846949 70.63389249943685 151.995493644086 H 0.0 **** 0.06
25453 H 68.2270716415918 70.41127708224911 150.23162464681437 H 0.0 **** 0.06
25454 H 69.70427460560609 70.29946663349045 151.2199988372042 H 0.0 **** 0.06
25455 H 68.91004231288673 71.87459908035993 150.98136423890804 H 0.0 **** 0.06
25456 C 24.853802835591132 80.50219980998902 41.3005628410792 C 0.0 **** -0.24
25457 H 25.62016888250551 81.02663659266203 40.72909541078835 H 0.0 **** 0.06
25458 H 24.053007604039273 81.19517019657604 41.55636718148878 H 0.0 **** 0.06
25459 H 25.29298883488773 80.10148396668323 42.21475503101118 H 0.0 **** 0.06
25460 H 24.45036376362932 79.68459655347601 40.702691028925415 H 0.0 **** 0.06
25461 C 116.2098243149905 115.81518738218813 30.376811113184687 C 0.0 **** -0.24
25462 H 116.57535182732443 115.53643711574978 29.389087595893272 H 0.0 **** 0.06
25463 H 115.21027008138907 115.40550002701718 30.523335754995458 H 0.0 **** 0.06
25464 H 116.17321865792479 116.90182493703753 30.45653386700687 H 0.0 **** 0.06
25465 H 116.8808046505938 115.41832423469907 31.138590533300658 H 0.0 **** 0.06
25466 C 157.5647828075913 131.00767277670934 119.429062655318 C 0.0 **** -0.24
25467 H 157.63974389164866 131.89097695078902 118.79527135624835 H 0.0 **** 0.06
25468 H 158.52446765321832 130.4905744964252 119.44568307648095 H 0.0 **** 0.06
25469 H 156.79903893489126 130.3402938970538 119.0326441484662 H 0.0 **** 0.06
25470 H 157.29617715524148 131.30813168975214 120.44146785062188 H 0.0 **** 0.06
25471 C 144.69665211881264 118.949554329877 138.96685497285233 C 0.0 **** -0.24
25472 H 144.24236757177567 118.1080638282919 138.44234454690144 H 0.0 **** 0.06
25473 H 145.62707597655697 119.22638757672709 138.47054491776112 H 0.0 **** 0.06
25474 H 144.90451588840403 118.66396359902964 139.99872487094467 H 0.0 **** 0.06
25475 H 144.01158448432977 119.79718187718106 138.95582195882025 H 0.0 **** 0.06
25476 C 150.2900024623248 147.6691567593375 42.5085420395756 C 0.0 **** -0.24
25477 H 151.15145540154626 147.1511761560912 42.087452057984194 H 0.0 **** 0.06
25478 H 150.47958202927063 148.7426439228422 42.513904948191865 H 0.0 **** 0.06
25479 H 150.1212408215814 147.32463995209656 43.5281691749087 H 0.0 **** 0.06
25480 H 149.40856916702785 147.45873332217315 41.902647506476555 H 0.0 **** 0.06
25481 C 154.13119692063353 106.3696224429168 144.3735024909242 C 0.0 **** -0.24
25482 H 153.54137832671833 106.88138960263564 145.1344974190533 H 0.0 **** 0.06
25483 H 153.5889124895171 105.48966640557614 144.02547682129702 H 0.0 **** 0.06
25484 H 155.08564969827188 106.06258648237213 144.79998888123038 H 0.0 **** 0.06
25485 H 154.30676535892033 107.04375910161531 143.5359129096151 H 0.0 **** 0.06
25486 C 28.532086168830844 156.88124789834166 150.33849248215714 C 0.0 **** -0.24
25487 H 28.241592053769736 155.96120410161404 150.8464112351679 H 0.0 **** 0.06
25488 H 27.929367592627052 157.00496331312323 149.43823324265375 H 0.0 **** 0.06
25489 H 29.585983172433487 156.82690942383243 150.06548461709102 H 0.0 **** 0.06
25490 H 28.372679959738264 157.72982644496147 151.00391563482748 H 0.0 **** 0.06
25491 C 102.37067398704468 110.62264515744238 28.285538624805326 C 0.0 **** -0.24
25492 H 102.11243544110425 111.20775500332215 27.402736163343263 H 0.0 **** 0.06
25493 H 101.60948172482992 109.85904183271683 28.4514458774118 H 0.0 **** 0.06
25494 H 102.42360943392256 111.27865293393597 29.154432457351163 H 0.0 **** 0.06
25495 H 103.33889581835845 110.14346114229056 28.133058829887943 H 0.0 **** 0.06
25496 C 9.208093031086179 66.51567328115591 115.21655091314614 C 0.0 **** -0.24
25497 H 9.272527507492839 65.46791114362411 115.51006847232128 H 0.0 **** 0.06
25498 H 10.160773710436075 66.83346027087008 114.79274575600772 H 0.0 **** 0.06
25499 H 8.976595613104536 67.12443183134744 116.09126050206069 H 0.0 **** 0.06
25500 H 8.421071491861085 66.63687406941574 114.47195818288188 H 0.0 **** 0.06
25501 C 152.00166140856993 95.63369817190815 76.74695114194043 C 0.0 **** -0.24
25502 H 151.71594947910287 96.66887400687023 76.56189568869871 H 0.0 **** 0.06
25503 H 152.66833990430973 95.58895513776282 77.60856342268158 H 0.0 **** 0.06
25504 H 152.51206813682947 95.23472661847129 75.87072713640379 H 0.0 **** 0.06
25505 H 151.10832408367904 95.04106156156296 76.94749083801764 H 0.0 **** 0.06
25506 C 120.80761863900554 92.26360136870593 49.065422570306865 C 0.0 **** -0.24
25507 H 121.42830258717805 91.96821204059187 49.91054468926902 H 0.0 **** 0.06
25508 H 121.06415419967587 93.27935411082493 48.76414904712837 H 0.0 **** 0.06
25509 H 119.75718835706473 92.22492709591386 49.354099523470055 H 0.0 **** 0.06
25510 H 120.9798668304752 91.58272163731856 48.23170606255145 H 0.0 **** 0.06
25511 C 55.48307703548346 65.34369404496299 144.05862554846522 C 0.0 **** -0.24
25512 H 55.070852925971394 64.4303468386554 144.48766403543817 H 0.0 **** 0.06
25513 H 54.685139475154074 66.07442056842973 143.92488225993316 H 0.0 **** 0.06
25514 H 55.93528313660909 65.11803467238418 143.09308511282075 H 0.0 **** 0.06
25515 H 56.24019054752321 65.7505546730026 144.72834518410275 H 0.0 **** 0.06
25516 C 42.723342372688705 70.90434176699469 74.45603498596256 C 0.0 **** -0.24
25517 H 43.249871876359975 71.81171653832229 74.7534279738968 H 0.0 **** 0.06
25518 H 42.6117682144116 70.88745344250435 73.37231462540211 H 0.0 **** 0.06
25519 H 41.73936231822654 70.88588662920472 74.92435913616049 H 0.0 **** 0.06
25520 H 43.293928008399405 70.03241503951148 74.77659806040472 H 0.0 **** 0.06
25521 C 126.69051825805533 47.77726056983792 127.02242518879618 C 0.0 **** -0.24
25522 H 125.97714122252384 47.54458397750672 127.81349768026467 H 0.0 **** 0.06
25523 H 127.08962476072182 48.779798266467935 127.1772865130429 H 0.0 **** 0.06
25524 H 126.18855858261705 47.731539035655274 126.0556569128685 H 0.0 **** 0.06
25525 H 127.50551060966535 47.05406754367978 127.04401586054144 H 0.0 **** 0.06
25526 C 125.75870743734455 134.22877198639 34.7341982298006 C 0.0 **** -0.24
25527 H 125.20212019013454 133.4978643443965 34.147537754268 H 0.0 **** 0.06
25528 H 125.30334397155875 135.2123299961447 34.61519135769754 H 0.0 **** 0.06
25529 H 126.79117121559821 134.2623308875987 34.386645073325326 H 0.0 **** 0.06
25530 H 125.73768419812285 133.94276731160443 35.78577618884762 H 0.0 **** 0.06
25531 C 79.8140272634834 87.55830106579353 61.79419031946678 C 0.0 **** -0.24
25532 H 80.67816430147178 87.28469278825358 62.39974011218341 H 0.0 **** 0.06
25533 H 80.021458105842 87.33728351263022 60.746034026091024 H 0.0 **** 0.06
25534 H 79.61375013425113 88.62396973524096 61.90717804972513 H 0.0 **** 0.06
25535 H 78.94480855194548 86.98793617110701 62.12093725488117 H 0.0 **** 0.06
25536 C 38.002045806521494 75.88564463525756 7.001138992521177 C 0.0 **** -0.24
25537 H 37.72527932498039 74.89041052106211 6.651699066865319 H 0.0 **** 0.06
25538 H 38.21802187088582 76.52395656375438 6.144471569664233 H 0.0 **** 0.06
25539 H 38.88582125144555 75.81421376282924 7.634492310225227 H 0.0 **** 0.06
25540 H 37.17833371612551 76.31032944629993 7.574018585065822 H 0.0 **** 0.06
25541 C 93.64973827021868 2.5015767713926778 146.12685250695495 C 0.0 **** -0.24
25542 H 93.0758428415858 3.29861044419426 146.5984574104067 H 0.0 **** 0.06
25543 H 92.97164875139703 1.825341601837529 145.60530530269568 H 0.0 **** 0.06
25544 H 94.19934572358592 1.9488447903107087 146.88864109585904 H 0.0 **** 0.06
25545 H 94.35266385502491 2.933114127458971 145.4137641462084 H 0.0 **** 0.06
25546 C 55.40414983018114 74.03081302668231 88.13095419385218 C 0.0 **** -0.24
25547 H 55.9995873351527 74.78886840495929 87.62278192301756 H 0.0 **** 0.06
25548 H 55.604401620356114 73.0548262042923 87.68902004199947 H 0.0 **** 0.06
25549 H 54.34610138961075 74.2681802797287 88.02414542171408 H 0.0 **** 0.06
25550 H 55.66745145461216 74.01231360790761 89.18966801529018 H 0.0 **** 0.06
25551 C 117.00451477492064 146.16560688638765 22.73370069726684 C 0.0 **** -0.24
25552 H 116.47323596782812 146.81161084083197 23.43243638911514 H 0.0 **** 0.06
25553 H 117.95915263705993 146.62113197990516 22.471814697847407 H 0.0 **** 0.06
25554 H 116.40521473348636 146.0356309201852 21.83215614117023 H 0.0 **** 0.06
25555 H 117.17858642662921 145.1946863190368 23.19734405521379 H 0.0 **** 0.06
25556 C 116.27428228397662 1.8858409636386781 63.39182594529461 C 0.0 **** -0.24
25557 H 116.5891611009211 1.5050288141191785 62.420851044063625 H 0.0 **** 0.06
25558 H 116.32406790026616 2.974955652599178 63.38948943315535 H 0.0 **** 0.06
25559 H 116.93156162794921 1.4932005872213452 64.16675382081519 H 0.0 **** 0.06
25560 H 115.24985406755627 1.5688717297110912 63.59055498117027 H 0.0 **** 0.06
25561 C 22.025012724424172 79.41631180260606 51.45099847056355 C 0.0 **** -0.24
25562 H 22.34866141799764 80.44845469083651 51.586392142074885 H 0.0 **** 0.06
25563 H 22.697088758059657 78.75105224730044 51.99355298457971 H 0.0 **** 0.06
25564 H 22.04255060397081 79.16547132815845 50.39134132096376 H 0.0 **** 0.06
25565 H 21.01143067966222 79.30076383161963 51.83626460177754 H 0.0 **** 0.06
25566 C 103.20856265068818 70.40705715049592 27.083943996099606 C 0.0 **** -0.24
25567 H 102.28966112088477 70.08515606143305 26.594081240648563 H 0.0 **** 0.06
25568 H 104.00836686658704 70.47822584068336 26.345323554761308 H 0.0 **** 0.06
25569 H 103.48437336289484 69.68366763830315 27.85073007913013 H 0.0 **** 0.06
25570 H 103.05164366293681 71.38325463978487 27.5443566297663 H 0.0 **** 0.06
25571 C 32.93243203259152 1.6516721988012364 66.32153380761605 C 0.0 **** -0.24
25572 H 33.58040913263761 0.928349120478174 65.82702875899668 H 0.0 **** 0.06
25573 H 32.8070143360182 1.3713583956145499 67.36714817932761 H 0.0 **** 0.06
25574 H 31.960533855394715 1.664955469633469 65.82920534505843 H 0.0 **** 0.06
25575 H 33.384143245630014 2.6426310073729837 66.2628267595972 H 0.0 **** 0.06
25576 C 66.9215912938954 68.4583302849389 123.96116207651505 C 0.0 **** -0.24
25577 H 67.25210419122499 69.28665956971273 124.5884775477532 H 0.0 **** 0.06
25578 H 66.93631431497886 67.53535520126175 124.54137764250373 H 0.0 **** 0.06
25579 H 67.58961373766596 68.36141214385476 123.10558640422474 H 0.0 **** 0.06
25580 H 65.90734893503009 68.65157590824936 123.6103039092053 H 0.0 **** 0.06
25581 C 38.580871095566124 149.17834849796716 42.91997959233751 C 0.0 **** -0.24
25582 H 39.179181374855375 148.27444214522046 42.80419539264834 H 0.0 **** 0.06
25583 H 39.21000711681853 149.983782646707 43.29797103925226 H 0.0 **** 0.06
25584 H 37.77045113226325 148.98833373489936 43.62383095062202 H 0.0 **** 0.06
25585 H 38.163953868673275 149.46450762218933 41.95467558848824 H 0.0 **** 0.06
25586 C 130.65817694162803 156.79077873429364 100.2905736698767 C 0.0 **** -0.24
25587 H 131.39235643434108 156.37405934976434 99.59970368247511 H 0.0 **** 0.06
25588 H 130.85057909748775 156.41489401780782 101.29513622476026 H 0.0 **** 0.06
25589 H 129.6570752468774 156.494783945649 99.97649191504865 H 0.0 **** 0.06
25590 H 130.73346579563355 157.87808513785208 100.2875366586411 H 0.0 **** 0.06
25591 C 150.329963338453 41.79530311200085 89.49514699819898 C 0.0 **** -0.24
25592 H 149.5152280247864 41.65073404962442 88.78547170784601 H 0.0 **** 0.06
25593 H 150.82542821477435 42.74478014248518 89.29068477237884 H 0.0 **** 0.06
25594 H 151.0478016240067 40.980557919990645 89.3944526182038 H 0.0 **** 0.06
25595 H 149.93020118245548 41.80344524957292 90.50914195820546 H 0.0 **** 0.06
25596 C 58.640518419939255 128.18360749364865 100.68067954309527 C 0.0 **** -0.24
25597 H 59.056456939870884 129.15274933920475 100.95596137010568 H 0.0 **** 0.06
25598 H 57.56989432646657 128.1766863988807 100.88762164903812 H 0.0 **** 0.06
25599 H 59.12847411668923 127.40191523119054 101.2617357026187 H 0.0 **** 0.06
25600 H 58.80733716718217 128.00514578956287 99.61871119983624 H 0.0 **** 0.06
25601 C 72.48871558409519 75.37976787404786 138.88078585102193 C 0.0 **** -0.24
25602 H 71.56250081722823 75.00068521292721 139.3123879712771 H 0.0 **** 0.06
25603 H 72.28380591300078 76.30017080059497 138.33339626818125 H 0.0 **** 0.06
25604 H 72.90302042200511 74.63582662505551 138.19979774718837 H 0.0 **** 0.06
25605 H 73.20481449608889 75.58203394099016 139.6769658730738 H 0.0 **** 0.06
25606 C 36.95395240406141 113.48884983881737 105.0844538426312 C 0.0 **** -0.24
25607 H 37.1470963050363 112.61548412738267 105.707810594357 H 0.0 **** 0.06
25608 H 37.68582810583882 113.52622283082968 104.27732864526479 H 0.0 **** 0.06
25609 H 37.03441332157571 114.39214965261988 105.68954008167185 H 0.0 **** 0.06
25610 H 35.95115069031782 113.42023697557624 104.66348135331975 H 0.0 **** 0.06
25611 C 75.14458851367696 72.7605342796329 7.14267485231111 C 0.0 **** -0.24
25612 H 75.71725320591166 71.92209521685288 7.5391151931037115 H 0.0 **** 0.06
25613 H 75.5909960124271 73.0945867059902 6.205761732136544 H 0.0 **** 0.06
25614 H 75.1541954554117 73.57918216015617 7.8623263043944505 H 0.0 **** 0.06
25615 H 74.11631756273738 72.44541612489252 6.963811016028075 H 0.0 **** 0.06
25616 C 146.13662882075343 138.69854117022965 56.990648829524105 C 0.0 **** -0.24
25617 H 147.09568104681523 138.4161066163298 57.423984015088934 H 0.0 **** 0.06
25618 H 146.28831990374354 139.4895324826333 56.25635501381487 H 0.0 **** 0.06
25619 H 145.47260358129913 139.0544029146148 57.77800372906421 H 0.0 **** 0.06
25620 H 145.68913959314617 137.83091747634177 56.50388869481563 H 0.0 **** 0.06
25621 C 11.527311636774868 150.5202986910066 129.25837553095568 C 0.0 **** -0.24
25622 H 12.001577669823064 151.1419866695573 130.0183082042023 H 0.0 **** 0.06
25623 H 10.660057865710883 151.0420288744357 128.85121533053837 H 0.0 **** 0.06
25624 H 11.209923517469008 149.57900229144963 129.70569162556882 H 0.0 **** 0.06
25625 H 12.240102728902968 150.31986849647797 128.45773423346202 H 0.0 **** 0.06
25626 C 86.68243778585185 162.2375598342171 149.65646806259272 C 0.0 **** -0.24
25627 H 87.37991157244488 162.3460986093114 150.48663641114263 H 0.0 **** 0.06
25628 H 85.66361306684578 162.18413912195354 150.04280513829784 H 0.0 **** 0.06
25629 H 86.91127647135363 161.32488907411326 149.1064509827824 H 0.0 **** 0.06
25630 H 86.77385459461951 163.09580072193478 148.99055109328438 H 0.0 **** 0.06
25631 C 28.68126576058397 0.4636316715742481 69.39767052301511 C 0.0 **** -0.24
25632 H 29.74832217940032 0.6649004912353291 69.48484434605672 H 0.0 **** 0.06
25633 H 28.32348844857116 -0.0014131490336204422 70.31609610841878 H 0.0 **** 0.06
25634 H 28.505418448653508 -0.20833409988016882 68.55704896068835 H 0.0 **** 0.06
25635 H 28.14783396571103 1.3993734439754988 69.23269267689693 H 0.0 **** 0.06
25636 C 94.698440800257 49.09875246645896 145.8220106808311 C 0.0 **** -0.24
25637 H 93.69922185336014 49.40064257661005 145.50845573007206 H 0.0 **** 0.06
25638 H 95.43682757692511 49.75904810733458 145.3685578695705 H 0.0 **** 0.06
25639 H 94.88435552371986 48.07245172635295 145.50399749060892 H 0.0 **** 0.06
25640 H 94.77269266355128 49.160626711289666 146.90776392054067 H 0.0 **** 0.06
25641 C 142.93158902926396 158.33989632412266 69.81425711184336 C 0.0 **** -0.24
25642 H 143.17670611081837 157.5747024090569 69.07715958154556 H 0.0 **** 0.06
25643 H 142.2515661028854 159.06701384157088 69.37039700713163 H 0.0 **** 0.06
25644 H 143.84566267261263 158.84365088948275 70.13134956047003 H 0.0 **** 0.06
25645 H 142.4548574935721 157.87435832283077 70.67669218696628 H 0.0 **** 0.06
25646 C 101.32078911874322 156.73943008289132 72.47159944511698 C 0.0 **** -0.24
25647 H 100.58358951663297 156.47305005754896 73.22968605974484 H 0.0 **** 0.06
25648 H 101.29038687059824 156.008218808454 71.66386518860794 H 0.0 **** 0.06
25649 H 102.31486576118016 156.74651687227464 72.9185717707605 H 0.0 **** 0.06
25650 H 101.09337595064903 157.72924815828583 72.07643078517548 H 0.0 **** 0.06
25651 C 151.60156744523138 82.80023307979283 81.7300167695098 C 0.0 **** -0.24
25652 H 151.43341872820133 81.72641697541027 81.65174915113846 H 0.0 **** 0.06
25653 H 151.1964804169604 83.16291229511143 82.6750565365108 H 0.0 **** 0.06
25654 H 151.10282911296343 83.30721515015877 80.90337407611509 H 0.0 **** 0.06
25655 H 152.6710597758207 83.00557173787932 81.68922421724358 H 0.0 **** 0.06
25656 C 141.49761835766503 119.55784966130011 110.25110034528484 C 0.0 **** -0.24
25657 H 142.25571173698555 120.07911211756675 110.83552290801771 H 0.0 **** 0.06
25658 H 141.5319427116481 118.4924162089784 110.48081164939015 H 0.0 **** 0.06
25659 H 141.69279038352934 119.7067276039025 109.18896471219193 H 0.0 **** 0.06
25660 H 140.51256797357712 119.95176604597816 110.49991243796114 H 0.0 **** 0.06
25661 C 40.000241898623315 0.5893443449699021 124.79196530732747 C 0.0 **** -0.24
25662 H 39.713693735279946 0.29618635718757247 125.80177092715289 H 0.0 **** 0.06
25663 H 40.966639839887165 1.092244650509592 124.82044589572428 H 0.0 **** 0.06
25664 H 39.249180406500656 1.2666866854939158 124.38402550678262 H 0.0 **** 0.06
25665 H 40.06975100740033 -0.2978984370315594 124.16189498332614 H 0.0 **** 0.06
25666 C 22.80742275533958 94.5909553055909 138.5350325680949 C 0.0 **** -0.24
25667 H 23.48320270057753 95.44405468166461 138.59698240166517 H 0.0 **** 0.06
25668 H 22.06522439082005 94.65721222025837 139.33171099787876 H 0.0 **** 0.06
25669 H 23.37635578819733 93.66809020181219 138.64388124019746 H 0.0 **** 0.06
25670 H 22.30384484915914 94.59656879192983 137.56821891252787 H 0.0 **** 0.06
25671 C 90.55337491254578 118.4696602927697 148.3345878857628 C 0.0 **** -0.24
25672 H 90.0481461125814 118.59430275969325 147.376791992618 H 0.0 **** 0.06
25673 H 91.55024390394684 118.0593130118697 148.1681299889182 H 0.0 **** 0.06
25674 H 89.97891807118236 117.78845152098867 148.96138272207213 H 0.0 **** 0.06
25675 H 90.63650825367874 119.43700880306966 148.82965712640512 H 0.0 **** 0.06
25676 C 43.925261879561845 132.14634861058659 92.2364181249346 C 0.0 **** -0.24
25677 H 43.651447815296024 132.513915528746 91.24727188372833 H 0.0 **** 0.06
25678 H 43.29133740555744 132.61714433186665 92.98734887072595 H 0.0 **** 0.06
25679 H 44.96898315173428 132.38859042852587 92.43733022655493 H 0.0 **** 0.06
25680 H 43.790179875353715 131.06586938117314 92.271678688615 H 0.0 **** 0.06
25681 C 140.89937334654 29.95555412074441 127.58400076373388 C 0.0 **** -0.24
25682 H 141.85405455796302 30.179286127837997 128.06094693999282 H 0.0 **** 0.06
25683 H 140.11622420466787 30.5631234297191 128.03746940887248 H 0.0 **** 0.06
25684 H 140.66560253170854 28.89928573037608 127.71761271161918 H 0.0 **** 0.06
25685 H 140.9649233020454 30.181816261617513 126.51937476014118 H 0.0 **** 0.06
25686 C 113.19914629929696 45.10809899764813 0.5204457148949757 C 0.0 **** -0.24
25687 H 114.03145900167928 45.29791792001515 -0.15684608329425487 H 0.0 **** 0.06
25688 H 112.42449369138913 45.86038686785939 0.36349594457666967 H 0.0 **** 0.06
25689 H 113.55025449224507 45.15871731312214 1.5513781548503118 H 0.0 **** 0.06
25690 H 112.78902058840447 44.11779947251843 0.3242784754258423 H 0.0 **** 0.06
25691 C 136.79330398052372 5.529834816257619 117.94093609486546 C 0.0 **** -0.24
25692 H 136.81477738488877 4.65050244178866 118.58323062814932 H 0.0 **** 0.06
25693 H 136.0801081748262 6.252844596270819 118.33942263095327 H 0.0 **** 0.06
25694 H 136.4916543438616 5.237605526829441 116.9350561827961 H 0.0 **** 0.06
25695 H 137.78597993757245 5.979617620447073 117.90605409163749 H 0.0 **** 0.06
25696 C 82.24772601137272 141.4024082481871 32.50651868792457 C 0.0 **** -0.24
25697 H 82.68224789617551 142.39222978176133 32.36573542376475 H 0.0 **** 0.06
25698 H 82.01789531686637 141.25352987339545 33.56252815704765 H 0.0 **** 0.06
25699 H 82.95898895007406 140.64369914212307 32.179524206154504 H 0.0 **** 0.06
25700 H 81.33328875540883 141.32008514301032 31.91992748805032 H 0.0 **** 0.06
25701 C 46.28158814500286 96.5693601597518 84.17686855046472 C 0.0 **** -0.24
25702 H 46.44304653079969 97.54733765039975 84.63193900488812 H 0.0 **** 0.06
25703 H 46.04946062575483 95.8415777642478 84.95499160203588 H 0.0 **** 0.06
25704 H 47.18390912680441 96.26110587635583 83.6492920332318 H 0.0 **** 0.06
25705 H 45.451244901125875 96.62820511733753 83.47383427200592 H 0.0 **** 0.06
25706 C 35.641879469306616 99.4585372835976 85.89589950830667 C 0.0 **** -0.24
25707 H 35.454075356258556 98.46757686033061 86.30925759958453 H 0.0 **** 0.06
25708 H 35.76305616931046 99.38529576121346 84.81481035203933 H 0.0 **** 0.06
25709 H 36.550374842580766 99.8685285213543 86.33643120998764 H 0.0 **** 0.06
25710 H 34.8004571418638 100.11232966391722 86.12389035354123 H 0.0 **** 0.06
25711 C 38.09898608758937 12.091600849781628 28.42539692140282 C 0.0 **** -0.24
25712 H 38.32867531674219 11.188439403978464 28.992020393842182 H 0.0 **** 0.06
25713 H 38.76578299080501 12.895762568152918 28.73812636741785 H 0.0 **** 0.06
25714 H 37.06502095213659 12.383343448897506 28.612218334915745 H 0.0 **** 0.06
25715 H 38.23550999733894 11.89730272590225 27.362488995694868 H 0.0 **** 0.06
25716 C 112.75564514667457 14.899909091077653 23.733699144390243 C 0.0 **** -0.24
25717 H 111.78815219099448 15.23220071079416 23.357374131350383 H 0.0 **** 0.06
25718 H 113.51251281565334 15.649501677104858 23.500520729980337 H 0.0 **** 0.06
25719 H 113.02237393927078 13.954557572835078 23.26211554884594 H 0.0 **** 0.06
25720 H 112.69915181603727 14.76460168905313 24.813625649090284 H 0.0 **** 0.06
25721 C 78.08731161392048 118.44866835654048 61.05638200662868 C 0.0 **** -0.24
25722 H 79.03950142860099 118.21605296834787 61.53346323906524 H 0.0 **** 0.06
25723 H 77.74645708366339 117.58552382043288 60.484031960326746 H 0.0 **** 0.06
25724 H 78.21560453732668 119.29988109917727 60.38740169136763 H 0.0 **** 0.06
25725 H 77.34934047280346 118.69487126025814 61.819914968546556 H 0.0 **** 0.06
25726 C 52.34313024433605 135.6076565758468 92.91398344624577 C 0.0 **** -0.24
25727 H 52.59218521869293 136.3040728088238 93.71469869408011 H 0.0 **** 0.06
25728 H 52.70617307181429 136.00179649307657 91.96401527217463 H 0.0 **** 0.06
25729 H 51.262111407683534 135.48113824680166 92.86593963964629 H 0.0 **** 0.06
25730 H 52.81370898399646 134.64455789618796 93.11188857748132 H 0.0 **** 0.06
25731 C 92.00267551131333 64.90797722299367 99.60936620667849 C 0.0 **** -0.24
25732 H 91.86014926927263 65.98840999281033 99.57794690926414 H 0.0 **** 0.06
25733 H 91.21432695237246 64.45559749009455 100.21142932499686 H 0.0 **** 0.06
25734 H 92.97284808280011 64.6821319487201 100.05069592090013 H 0.0 **** 0.06
25735 H 91.96228294596682 64.50663672108138 98.59717053772249 H 0.0 **** 0.06
25736 C 33.84687606622276 112.25754674465378 9.115190206943112 C 0.0 **** -0.24
25737 H 32.761644419070365 112.32781938026272 9.188278384951076 H 0.0 **** 0.06
25738 H 34.14465130558219 111.20793232890668 9.13240700362968 H 0.0 **** 0.06
25739 H 34.302576536828695 112.77848580138516 9.957034269281507 H 0.0 **** 0.06
25740 H 34.17884587252303 112.71427455223954 8.182655154969666 H 0.0 **** 0.06
25741 C 74.36510865751006 154.64173348575764 86.28585174046013 C 0.0 **** -0.24
25742 H 75.44331029590512 154.4912470602368 86.24171684785235 H 0.0 **** 0.06
25743 H 73.88055545006893 154.02470397737963 85.5284795321822 H 0.0 **** 0.06
25744 H 74.13682807522156 155.69227256691113 86.0987567097851 H 0.0 **** 0.06
25745 H 73.99907564904322 154.3613220186876 87.27313593398235 H 0.0 **** 0.06
25746 C 84.31863572114304 103.28749308395186 5.935713222608172 C 0.0 **** -0.24
25747 H 83.97815484086226 103.87366179298965 6.790146318363355 H 0.0 **** 0.06
25748 H 85.39608151402757 103.40825385094442 5.818994387590919 H 0.0 **** 0.06
25749 H 83.81440670348829 103.63382007993695 5.0332302130747735 H 0.0 **** 0.06
25750 H 84.08635489122582 102.23621563126352 6.101418213477416 H 0.0 **** 0.06
25751 C 79.45284005078446 42.74385240192389 5.189118909896763 C 0.0 **** -0.24
25752 H 80.06562525354053 43.183501787298994 5.97652705721157 H 0.0 **** 0.06
25753 H 79.5579241285692 43.33157557104188 4.276926121771396 H 0.0 **** 0.06
25754 H 78.40887119861492 42.73965987229877 5.501188276166772 H 0.0 **** 0.06
25755 H 79.78115543557135 41.720727372523015 5.00287693494829 H 0.0 **** 0.06
25756 C 162.69715076315015 58.73906324168399 114.51630087199527 C 0.0 **** -0.24
25757 H 163.57465216152923 58.24631479650145 114.93463699624132 H 0.0 **** 0.06
25758 H 162.82382497727139 59.82011375445626 114.57772806401456 H 0.0 **** 0.06
25759 H 161.81173210839 58.44362153372083 115.07989725485177 H 0.0 **** 0.06
25760 H 162.57803144749795 58.4450314135413 113.47364574268519 H 0.0 **** 0.06
25761 C 30.866131436123624 141.4303353766337 114.34832103147008 C 0.0 **** -0.24
25762 H 31.577413453556517 142.17135275318736 114.71244461011116 H 0.0 **** 0.06
25763 H 29.953261554493906 141.93228397002315 114.02578873666351 H 0.0 **** 0.06
25764 H 30.631825656536904 140.72806401935492 115.14815888374781 H 0.0 **** 0.06
25765 H 31.300841383170592 140.89089445543715 113.50672693997373 H 0.0 **** 0.06
25766 C 150.874953530011 34.35160566889249 127.20243388718771 C 0.0 **** -0.24
25767 H 149.94005842386355 34.54102404984769 127.73029531479489 H 0.0 **** 0.06
25768 H 150.7333123396586 34.52973901851283 126.13624809088083 H 0.0 **** 0.06
25769 H 151.17915235219198 33.31750919825049 127.36099425315265 H 0.0 **** 0.06
25770 H 151.64860079329964 35.01984223907402 127.58284774730436 H 0.0 **** 0.06
25771 C 80.84458557493723 138.83140418409096 146.52489113972368 C 0.0 **** -0.24
25772 H 80.60539111099301 137.79754930702586 146.7743444687656 H 0.0 **** 0.06
25773 H 81.89323387731359 139.02641179676726 146.75049840810647 H 0.0 **** 0.06
25774 H 80.2154644464354 139.50106643306 147.11034472501223 H 0.0 **** 0.06
25775 H 80.66335065065094 138.99867711258415 145.46313997927342 H 0.0 **** 0.06
25776 C 8.131238607279101 35.038327413667304 82.17393498169396 C 0.0 **** -0.24
25777 H 7.321119715449186 34.573861063513945 81.61186448626206 H 0.0 **** 0.06
25778 H 7.848706521017448 35.11142700390995 83.22461140944152 H 0.0 **** 0.06
25779 H 8.320547014205829 36.03626283450964 81.77850979540978 H 0.0 **** 0.06
25780 H 9.032541770663443 34.433942704676014 82.08048695033284 H 0.0 **** 0.06
25781 C 124.49572564447774 35.26522573002859 77.63841536184054 C 0.0 **** -0.24
25782 H 124.65523924122468 34.31760319045935 78.15362484753621 H 0.0 **** 0.06
25783 H 124.45325662807156 35.09041871370022 76.5627682151906 H 0.0 **** 0.06
25784 H 125.31734097752249 35.94433526430072 77.8644956977617 H 0.0 **** 0.06
25785 H 123.55692151175202 35.70613046619491 77.97239087800239 H 0.0 **** 0.06
25786 C 124.3754523061805 37.14039425581183 33.697260081855916 C 0.0 **** -0.24
25787 H 124.88678449529814 38.04141022022509 34.03842943566434 H 0.0 **** 0.06
25788 H 125.0003344586799 36.623293398320556 32.96805578943909 H 0.0 **** 0.06
25789 H 123.427674068236 37.41537263321739 33.23406987276525 H 0.0 **** 0.06
25790 H 124.18813177805467 36.48485826666132 34.54726738725981 H 0.0 **** 0.06
25791 C 146.19111426536517 154.88359557862776 124.92004370926401 C 0.0 **** -0.24
25792 H 145.45646438086197 154.6354263778409 125.68620587026203 H 0.0 **** 0.06
25793 H 146.8293589111356 155.69191895022314 125.27765518961871 H 0.0 **** 0.06
25794 H 145.67668314637405 155.2005865848972 124.0123398973094 H 0.0 **** 0.06
25795 H 146.80063836267328 154.00601507138543 124.70427140399829 H 0.0 **** 0.06
25796 C 20.919216703572232 46.54714495071863 103.31908859345927 C 0.0 **** -0.24
25797 H 20.469347087992105 45.57113413080167 103.13631531080492 H 0.0 **** 0.06
25798 H 20.751082167663128 46.836090187419885 104.35642232732206 H 0.0 **** 0.06
25799 H 20.464721129658983 47.28562059675727 102.65838188108125 H 0.0 **** 0.06
25800 H 21.99082503716363 46.49614574296204 103.12504341551545 H 0.0 **** 0.06
25801 C 114.86487172824505 105.05757103829472 69.50431352719946 C 0.0 **** -0.24
25802 H 114.12649416673537 104.86049584484317 70.28157397444723 H 0.0 **** 0.06
25803 H 114.88891354874445 106.1264579626912 69.28932137304447 H 0.0 **** 0.06
25804 H 114.59650867745523 104.51135369626022 68.60039886089022 H 0.0 **** 0.06
25805 H 115.84762221495498 104.73324970379667 69.84657367599367 H 0.0 **** 0.06
25806 C 148.85566064905254 84.82103655647043 142.55646633095185 C 0.0 **** -0.24
25807 H 148.97555788571145 84.03759321185554 141.80766658656444 H 0.0 **** 0.06
25808 H 148.0154869263297 85.45915488756415 142.28202694569424 H 0.0 **** 0.06
25809 H 149.76560964235415 85.41789896687509 142.6058819766489 H 0.0 **** 0.06
25810 H 148.66492446676403 84.36642600712499 143.52873266311752 H 0.0 **** 0.06
25811 C 96.05214643533449 18.93276100370211 48.3432908728401 C 0.0 **** -0.24
25812 H 96.96402641115967 19.527011948095193 48.28974123865294 H 0.0 **** 0.06
25813 H 96.21565350394718 18.07584360511197 48.997987683377346 H 0.0 **** 0.06
25814 H 95.7874640403371 18.583008391313996 47.34527373598232 H 0.0 **** 0.06
25815 H 95.24218001361366 19.543975350345605 48.74022190753573 H 0.0 **** 0.06
25816 C 153.21191683597914 73.87020735208262 162.99490968922225 C 0.0 **** -0.24
25817 H 152.32328516573455 73.70109118841867 163.60271173042494 H 0.0 **** 0.06
25818 H 153.37875909779675 73.00789977716711 162.34876714594796 H 0.0 **** 0.06
25819 H 154.07494352594153 74.00936542475354 163.64579893565661 H 0.0 **** 0.06
25820 H 153.06999193190939 74.76157426166986 162.3836722430202 H 0.0 **** 0.06
25821 C 141.06295449338853 22.092513503554812 142.91554517227445 C 0.0 **** -0.24
25822 H 140.257997040347 22.491123546872245 143.5323501363448 H 0.0 **** 0.06
25823 H 140.65528817304045 21.362721824752043 142.21481042612533 H 0.0 **** 0.06
25824 H 141.8030307579969 21.60933583811166 143.55329693903934 H 0.0 **** 0.06
25825 H 141.53330975381658 22.90519903124988 142.36234990264427 H 0.0 **** 0.06
25826 C 73.58917585378337 156.0871007997991 106.77261918949407 C 0.0 **** -0.24
25827 H 72.57246216684169 155.97754331565022 106.39481328329074 H 0.0 **** 0.06
25828 H 73.68487116537 157.04528649109653 107.28429142240105 H 0.0 **** 0.06
25829 H 74.29227316615527 156.04759534411443 105.9407301707565 H 0.0 **** 0.06
25830 H 73.80597527831446 155.2783161676366 107.47143413330679 H 0.0 **** 0.06
25831 C 141.60071959025032 102.38587495752466 104.36135800060532 C 0.0 **** -0.24
25832 H 141.30164471389023 102.48048592822232 105.40525830194929 H 0.0 **** 0.06
25833 H 142.34872901701573 103.14415504017305 104.12825267666207 H 0.0 **** 0.06
25834 H 140.73096035607193 102.52338437043784 103.72016938259685 H 0.0 **** 0.06
25835 H 142.02236499228945 101.39453041992869 104.19360509791309 H 0.0 **** 0.06
25836 C 96.22050883667316 100.88608682219947 58.2334279678368 C 0.0 **** -0.24
25837 H 96.91417679275466 101.60335168967893 58.67425195636223 H 0.0 **** 0.06
25838 H 96.75498970939262 99.96634899388991 57.992784202340545 H 0.0 **** 0.06
25839 H 95.79223025946567 101.3071750214161 57.32371204993018 H 0.0 **** 0.06
25840 H 95.42325945151964 100.66909895867349 58.94418146489396 H 0.0 **** 0.06
25841 C 67.9828368111904 8.776811609199939 81.42114246080538 C 0.0 **** -0.24
25842 H 68.6732767488644 9.608453433312718 81.28060625811808 H 0.0 **** 0.06
25843 H 68.21212424413508 8.268046374043195 82.35734759764225 H 0.0 **** 0.06
25844 H 68.08622505355191 8.07620879405789 80.59237866385565 H 0.0 **** 0.06
25845 H 66.96079025499327 9.153688904600529 81.45246628294633 H 0.0 **** 0.06
25846 C 118.59166343608388 110.40686248653336 48.242045277275935 C 0.0 **** -0.24
25847 H 118.5861329753516 111.41641616807445 48.652538423239235 H 0.0 **** 0.06
25848 H 119.37119018313547 109.82114177953218 48.73019401242192 H 0.0 **** 0.06
25849 H 118.78658601304812 110.45074018927986 47.17129939648254 H 0.0 **** 0.06
25850 H 117.62332746487527 109.93841540390821 48.416411604320544 H 0.0 **** 0.06
25851 C 74.00224030289819 151.77453595888002 54.18965627430049 C 0.0 **** -0.24
25852 H 74.34623494539484 152.2281588022896 55.118885977782554 H 0.0 **** 0.06
25853 H 73.57155142098512 150.79611485483278 54.400860121577296 H 0.0 **** 0.06
25854 H 74.84593785906706 151.66223394264938 53.5079286310301 H 0.0 **** 0.06
25855 H 73.24721929638714 152.41301038199987 53.73137739054164 H 0.0 **** 0.06
25856 C 23.4982992859357 158.1902563731505 23.051309660664117 C 0.0 **** -0.24
25857 H 23.799190067011807 157.14288456454364 23.07969795311442 H 0.0 **** 0.06
25858 H 22.43390920445978 158.26893233908106 23.272851317257157 H 0.0 **** 0.06
25859 H 23.693737243455615 158.59696828485158 22.058371432551475 H 0.0 **** 0.06
25860 H 24.067140498924573 158.7511249390935 23.79228128941054 H 0.0 **** 0.06
25861 C 151.8569612123023 45.88376197810942 3.6009747779150985 C 0.0 **** -0.24
25862 H 152.11459259959474 46.22971994662947 2.599189843693381 H 0.0 **** 0.06
25863 H 150.95146977005908 46.388634096220244 3.9380745534847392 H 0.0 **** 0.06
25864 H 152.67612239718255 46.10988451244816 4.284257615849498 H 0.0 **** 0.06
25865 H 151.68795651178618 44.807617645800406 3.57991266288559 H 0.0 **** 0.06
25866 C 124.95633539570443 160.3802363035094 121.0768453960288 C 0.0 **** -0.24
25867 H 124.97084939652561 159.9912804590005 120.05934870742695 H 0.0 **** 0.06
25868 H 124.87205029081102 161.46735783962484 121.04800630770143 H 0.0 **** 0.06
25869 H 125.87867445352578 160.1006296458587 121.58529068739011 H 0.0 **** 0.06
25870 H 124.1039411407944 159.9629125373323 121.61262777265523 H 0.0 **** 0.06
25871 C 150.55817605388188 55.89335548586321 150.49653171412862 C 0.0 **** -0.24
25872 H 150.28260522665119 56.139320986131764 149.4699102567224 H 0.0 **** 0.06
25873 H 149.72667299577375 56.129263098094725 151.1608291821044 H 0.0 **** 0.06
25874 H 151.43253799171998 56.47569922999077 150.78662964900113 H 0.0 **** 0.06
25875 H 150.78967914011042 54.83020878777312 150.56553382584133 H 0.0 **** 0.06
25876 C 50.40900321175661 96.23285700873507 142.3781950013594 C 0.0 **** -0.24
25877 H 50.09952027974677 96.14509420136096 143.419944913352 H 0.0 **** 0.06
25878 H 50.74117243221127 97.25272595672044 142.18287779938117 H 0.0 **** 0.06
25879 H 49.56806713264892 95.99239311798365 141.72787471235284 H 0.0 **** 0.06
25880 H 51.2282386449901 95.53929957839236 142.18439794085108 H 0.0 **** 0.06
25881 C 120.73345634435668 75.7743413711504 83.86931978212677 C 0.0 **** -0.24
25882 H 120.25584059779646 76.63215680697272 84.34206147998454 H 0.0 **** 0.06
25883 H 121.4093306469523 75.29749250848158 84.58012143184332 H 0.0 **** 0.06
25884 H 121.29819197394158 76.1071138192384 82.9986843766146 H 0.0 **** 0.06
25885 H 119.97140149347115 75.06056003072649 83.55675226556707 H 0.0 **** 0.06
25886 C 114.77169390362042 108.30147903481702 24.26091829394619 C 0.0 **** -0.24
25887 H 114.71075168614652 107.23318187050654 24.05519020529897 H 0.0 **** 0.06
25888 H 115.69246202331374 108.51496004046598 24.803387438296284 H 0.0 **** 0.06
25889 H 113.91491724637592 108.60492178523808 24.863513637286474 H 0.0 **** 0.06
25890 H 114.76704698083643 108.85260150829131 23.320961775638352 H 0.0 **** 0.06
25891 C 58.24148548689013 137.45075123142357 114.42119380543699 C 0.0 **** -0.24
25892 H 57.430295754899575 137.25080367938983 113.72161605395158 H 0.0 **** 0.06
25893 H 58.95742896022372 136.62963887771105 114.39075879020635 H 0.0 **** 0.06
25894 H 57.836928282474204 137.54364364346122 115.42861144296074 H 0.0 **** 0.06
25895 H 58.740896793329256 138.3787216234262 114.14244452976004 H 0.0 **** 0.06
25896 C 114.22373999194645 43.28691014718177 149.83909592345674 C 0.0 **** -0.24
25897 H 115.0756471828629 43.9600039187153 149.93722735886215 H 0.0 **** 0.06
25898 H 113.56322293330732 43.410596139294995 150.6973125901279 H 0.0 **** 0.06
25899 H 114.57781353336347 42.256324244337804 149.7989274057673 H 0.0 **** 0.06
25900 H 113.67989900595734 43.51996580356024 148.92425939939983 H 0.0 **** 0.06
25901 C 40.947676656713895 122.81453628180535 33.53732226970628 C 0.0 **** -0.24
25902 H 40.166216800479106 123.29648590734351 34.124854318920555 H 0.0 **** 0.06
25903 H 40.5527158501568 122.55212304309921 32.5553537671735 H 0.0 **** 0.06
25904 H 41.2818987798255 121.91214646009274 34.04826062885036 H 0.0 **** 0.06
25905 H 41.787125879895314 123.49891745854671 33.42049239224205 H 0.0 **** 0.06
25906 C 69.25632041383992 16.865355379335 29.118659567882787 C 0.0 **** -0.24
25907 H 69.03392929441054 17.842812534427026 29.546089725934507 H 0.0 **** 0.06
25908 H 68.4747560848299 16.592569581077612 28.40880676955453 H 0.0 **** 0.06
25909 H 69.2988316704605 16.121843520130597 29.915302398164556 H 0.0 **** 0.06
25910 H 70.21654572456922 16.902563188531616 28.605360677390706 H 0.0 **** 0.06
25911 C 88.87569604859578 68.88386293378022 5.5754722361911035 C 0.0 **** -0.24
25912 H 89.04420390654975 67.8173044953565 5.722254512275548 H 0.0 **** 0.06
25913 H 88.21326602344006 69.25760364462394 6.357433395567256 H 0.0 **** 0.06
25914 H 88.4166219010141 69.04950095152412 4.600996571783895 H 0.0 **** 0.06
25915 H 89.82817229983793 69.41151750329647 5.623943859895235 H 0.0 **** 0.06
25916 C 87.39981651370967 111.84659713472726 74.18875371629946 C 0.0 **** -0.24
25917 H 86.59795713170642 112.47304760053385 73.79952092523573 H 0.0 **** 0.06
25918 H 88.26702362139575 112.46728103746327 74.41877163870852 H 0.0 **** 0.06
25919 H 87.67359126655217 111.10123384573251 73.4426318889057 H 0.0 **** 0.06
25920 H 87.06156397050154 111.34583562327819 75.09588600018964 H 0.0 **** 0.06
25921 C 158.98015409832738 40.27774874221191 50.98641890621036 C 0.0 **** -0.24
25922 H 158.83144350535142 41.226702717962354 51.50279803318345 H 0.0 **** 0.06
25923 H 159.95246129151627 40.28083763468362 50.49353145093785 H 0.0 **** 0.06
25924 H 158.19459037084752 40.14225605327729 50.243028553104836 H 0.0 **** 0.06
25925 H 158.941441867017 39.46205669422035 51.70944846841515 H 0.0 **** 0.06
25926 C 133.94499952383285 47.71898643865232 66.40199059094131 C 0.0 **** -0.24
25927 H 133.28054150444245 46.88219369186699 66.19070111410646 H 0.0 **** 0.06
25928 H 134.45803607611424 47.545517392403454 67.34814906305294 H 0.0 **** 0.06
25929 H 133.3625205489525 48.6382537998788 66.46806355327344 H 0.0 **** 0.06
25930 H 134.6794246653267 47.810364481605546 65.60230465613424 H 0.0 **** 0.06
25931 C 139.1930472530476 9.843138297970313 15.826280218390394 C 0.0 **** -0.24
25932 H 138.46611234627414 10.483805509643787 15.328130653392662 H 0.0 **** 0.06
25933 H 140.05583646016376 9.699010788677356 15.175346331640895 H 0.0 **** 0.06
25934 H 138.73690240745177 8.87810215133291 16.046223302918122 H 0.0 **** 0.06
25935 H 139.51426281120482 10.313580556485078 16.75601917470246 H 0.0 **** 0.06
25936 C 137.2516605893353 43.27039961705103 135.03058650199216 C 0.0 **** -0.24
25937 H 136.76090769945705 43.8649813213877 134.26062999244775 H 0.0 **** 0.06
25938 H 137.04068579245734 43.69788007179177 136.01068799885843 H 0.0 **** 0.06
25939 H 138.32833518077507 43.2699675838946 134.8582104052021 H 0.0 **** 0.06
25940 H 136.87783355548072 42.246839699200805 134.99296574428917 H 0.0 **** 0.06
25941 C 134.5731729976032 9.540487229311488 14.202394889619825 C 0.0 **** -0.24
25942 H 134.07817562147784 8.829461268021817 14.864285781945455 H 0.0 **** 0.06
25943 H 134.69281321685833 10.493028956247997 14.718382608439015 H 0.0 **** 0.06
25944 H 133.9694819851676 9.684271794873858 13.307028497155727 H 0.0 **** 0.06
25945 H 135.55290386320956 9.15344861183528 13.922006942121357 H 0.0 **** 0.06
25946 C 104.46794086825716 109.67643429385902 110.6231109440744 C 0.0 **** -0.24
25947 H 103.5766395917721 110.24301724558535 110.89269516002318 H 0.0 **** 0.06
25948 H 104.82750630807004 109.13040472382568 111.4944055058657 H 0.0 **** 0.06
25949 H 105.24233425941068 110.36099392638056 110.27757537559265 H 0.0 **** 0.06
25950 H 104.2235009355631 108.97241947966421 109.82698209143425 H 0.0 **** 0.06
25951 C 150.7120327811233 77.81203140052081 69.12725607259377 C 0.0 **** -0.24
25952 H 151.36932491245256 77.37911312602681 69.8805127617268 H 0.0 **** 0.06
25953 H 149.87008617215184 77.14243986476897 68.95072860319996 H 0.0 **** 0.06
25954 H 151.26612862695055 77.9532860382432 68.19924164415423 H 0.0 **** 0.06
25955 H 150.3422655622187 78.77552355113158 69.47948464306259 H 0.0 **** 0.06
25956 C 153.58649880259776 146.2510595343572 160.62002646859486 C 0.0 **** -0.24
25957 H 154.23561854548785 146.44517639102745 161.4732439253603 H 0.0 **** 0.06
25958 H 154.10249583076506 146.52671771904622 159.69999521585308 H 0.0 **** 0.06
25959 H 152.67400805491843 146.8391808574857 160.71626986386244 H 0.0 **** 0.06
25960 H 153.33256784855405 145.1906660119925 160.5908450626481 H 0.0 **** 0.06
25961 C 49.96257272110499 47.02440582046711 158.30600833819062 C 0.0 **** -0.24
25962 H 51.027605407639086 47.12994360190197 158.09941693097835 H 0.0 **** 0.06
25963 H 49.53854637726475 46.263262988665815 157.65078615006036 H 0.0 **** 0.06
25964 H 49.46239712407012 47.97651414481072 158.12924872302443 H 0.0 **** 0.06
25965 H 49.822562441695055 46.72802420749946 159.34572701545716 H 0.0 **** 0.06
25966 C 56.64130515735998 94.63350210005213 10.651501292181251 C 0.0 **** -0.24
25967 H 56.68142076056573 95.6312148819892 10.214076090053027 H 0.0 **** 0.06
25968 H 57.6401570960909 94.19669711589106 10.651221407563412 H 0.0 **** 0.06
25969 H 55.97075099978835 94.00659077117672 10.064177575190115 H 0.0 **** 0.06
25970 H 56.27249356381175 94.70082622949961 11.674505835428505 H 0.0 **** 0.06
25971 C 69.21783016329896 72.69905786206343 68.48538702760845 C 0.0 **** -0.24
25972 H 68.173391855278 72.38710312871518 68.4886616682112 H 0.0 **** 0.06
25973 H 69.50273414270809 73.02094309637775 69.48743318309948 H 0.0 **** 0.06
25974 H 69.34877997867292 73.5246711835843 67.78607905791495 H 0.0 **** 0.06
25975 H 69.8451312766658 71.86150481741436 68.17993642194313 H 0.0 **** 0.06
25976 C 62.241091929086096 107.19203821286413 2.857432746855949 C 0.0 **** -0.24
25977 H 62.65485265555195 106.4267537287443 2.201630535608558 H 0.0 **** 0.06
25978 H 61.17570580718005 107.30585354833596 2.656847750899402 H 0.0 **** 0.06
25979 H 62.749376162638555 108.13898719783242 2.676713068046894 H 0.0 **** 0.06
25980 H 62.38473096095946 106.89518214408861 3.8965439878230086 H 0.0 **** 0.06
25981 C 26.39918927217343 81.06715237164047 4.487500478862557 C 0.0 **** -0.24
25982 H 26.691857699347736 81.95445783429557 5.049564609648655 H 0.0 **** 0.06
25983 H 25.385870651350842 81.19430965796934 4.108385442000042 H 0.0 **** 0.06
25984 H 26.43711778992045 80.19555256723777 5.140484434736493 H 0.0 **** 0.06
25985 H 27.085152035181693 80.92488605212276 3.6519412269798295 H 0.0 **** 0.06
25986 C 49.10407948431701 148.1170628012186 100.50742833964154 C 0.0 **** -0.24
25987 H 49.08226359742832 147.22812083341648 99.87823118849292 H 0.0 **** 0.06
25988 H 49.849694071180494 147.98819867857412 101.29208290409156 H 0.0 **** 0.06
25989 H 48.1224422203706 148.2656040750277 100.9594434776684 H 0.0 **** 0.06
25990 H 49.35949245488091 148.9849942097078 99.90053781990235 H 0.0 **** 0.06
25991 C 72.67570234557174 84.08025776016889 29.436362505617588 C 0.0 **** -0.24
25992 H 73.0438444792182 84.36904869638681 28.45182351459877 H 0.0 **** 0.06
25993 H 72.09112461924664 84.89745055237273 29.859221448394564 H 0.0 **** 0.06
25994 H 73.52116813653849 83.86165737056419 30.089162123650055 H 0.0 **** 0.06
25995 H 72.04903317555386 83.19417028492508 29.343585653441046 H 0.0 **** 0.06
25996 C 49.433343886231 133.90101935346715 151.24360619364427 C 0.0 **** -0.24
25997 H 49.25672715036569 134.13481697841365 150.1940677077036 H 0.0 **** 0.06
25998 H 49.668897818749485 134.81743112308044 151.78604947428872 H 0.0 **** 0.06
25999 H 50.26963147788578 133.20635963862776 151.32475305406217 H 0.0 **** 0.06
26000 H 48.53940666154523 133.445901248778 151.66994948569814 H 0.0 **** 0.06
26001 C 128.4393859852621 140.99823340838367 5.549667495196303 C 0.0 **** -0.24
26002 H 128.10693363799862 141.76978008739223 6.244369607187544 H 0.0 **** 0.06
26003 H 128.96802348081917 140.21826061359303 6.09897955363688 H 0.0 **** 0.06
26004 H 129.10763325951729 141.43862550315407 4.809899133612618 H 0.0 **** 0.06
26005 H 127.57433242965811 140.5666182412126 5.046122510845869 H 0.0 **** 0.06
26006 C 46.33049738651329 124.29754619862362 19.45511220611678 C 0.0 **** -0.24
26007 H 46.65141844094842 123.73981954803935 18.574662008574762 H 0.0 **** 0.06
26008 H 45.85921012758905 125.22956784082183 19.143123689853724 H 0.0 **** 0.06
26009 H 47.19517221361403 124.51879299369779 20.08024589894606 H 0.0 **** 0.06
26010 H 45.615975613449734 123.70103306350873 20.02231196884469 H 0.0 **** 0.06
26011 C 24.644114999572082 33.17915830949241 101.65684595102422 C 0.0 **** -0.24
26012 H 25.23910587498395 34.09105641974503 101.70194069155235 H 0.0 **** 0.06
26013 H 24.287220186538633 32.930098947734066 102.65640855314874 H 0.0 **** 0.06
26014 H 25.257290354548132 32.36410014408739 101.2747020334784 H 0.0 **** 0.06
26015 H 23.79214707696852 33.334742369143825 100.99542543579739 H 0.0 **** 0.06
26016 C 101.5707149460795 52.21338922751772 4.568406312067509 C 0.0 **** -0.24
26017 H 101.6726723526736 53.06574345100945 3.8973230122441294 H 0.0 **** 0.06
26018 H 102.26740086787552 52.319537274505564 5.399486423236823 H 0.0 **** 0.06
26019 H 101.79035417669999 51.29416530670291 4.024088491540567 H 0.0 **** 0.06
26020 H 100.55064941092147 52.173861169273465 4.951066350820099 H 0.0 **** 0.06
26021 C 72.57866358618804 160.44785727599822 123.48087081003189 C 0.0 **** -0.24
26022 H 72.72851548370811 161.36064013549992 124.05900727269977 H 0.0 **** 0.06
26023 H 73.33919818633191 159.71667497945054 123.75439305710324 H 0.0 **** 0.06
26024 H 72.65672216941242 160.6741437315494 122.41778514375653 H 0.0 **** 0.06
26025 H 71.58951670881073 160.0415531724033 123.69474769181068 H 0.0 **** 0.06
26026 C 35.03362798560414 71.42160071678853 18.724393467283875 C 0.0 **** -0.24
26027 H 34.510958820780786 71.5727912836103 17.779523511022937 H 0.0 **** 0.06
26028 H 34.382853122516906 70.88648118966391 19.41779457958736 H 0.0 **** 0.06
26029 H 35.30091019619458 72.38925365082338 19.149914204651978 H 0.0 **** 0.06
26030 H 35.93766255373228 70.83874702454825 18.551188687844572 H 0.0 **** 0.06
26031 C 154.02553303952843 116.86135940266075 37.00163818296289 C 0.0 **** -0.24
26032 H 153.82155992333955 115.83007446916997 36.71540370041055 H 0.0 **** 0.06
26033 H 154.7882466633652 117.27755705714179 36.34294226041732 H 0.0 **** 0.06
26034 H 154.38056258421088 116.88830234930825 38.031841054034714 H 0.0 **** 0.06
26035 H 153.11176298719803 117.44950373502306 36.916365716989105 H 0.0 **** 0.06
26036 C 41.48793492117895 145.62485367585788 116.53555001293273 C 0.0 **** -0.24
26037 H 42.308189049301575 145.21345505726907 115.94703985404453 H 0.0 **** 0.06
26038 H 40.805849484666865 146.16503290955208 115.8793345794574 H 0.0 **** 0.06
26039 H 41.886866531562205 146.30687503449636 117.28597474095443 H 0.0 **** 0.06
26040 H 40.952952182635116 144.81378148214327 117.02864959159547 H 0.0 **** 0.06
26041 C 107.9709900072938 129.36260736835598 140.3494360735235 C 0.0 **** -0.24
26042 H 108.4131956288534 129.17327733484558 139.37151727784024 H 0.0 **** 0.06
26043 H 107.4311866913759 128.47518027270237 140.68058468089896 H 0.0 **** 0.06
26044 H 107.2806206778611 130.2025517662854 140.27984139845523 H 0.0 **** 0.06
26045 H 108.75884310225342 129.59708477851035 141.06507054196942 H 0.0 **** 0.06
26046 C 73.83521522479211 148.13875988864402 72.7645812565309 C 0.0 **** -0.24
26047 H 73.42657737311127 148.09045371146127 71.75473992969947 H 0.0 **** 0.06
26048 H 73.54584348267055 147.24367998703528 73.31674234834963 H 0.0 **** 0.06
26049 H 73.44454502118755 149.0210569512528 73.27200470370869 H 0.0 **** 0.06
26050 H 74.92186588023598 148.19980528365284 72.71389951840098 H 0.0 **** 0.06
26051 C 30.24856594600461 152.37542433546304 55.29448197892873 C 0.0 **** -0.24
26052 H 30.09797053652438 151.38199057193629 55.714948605568054 H 0.0 **** 0.06
26053 H 29.888720798083675 153.12657912231788 55.9981039177909 H 0.0 **** 0.06
26054 H 29.696981990396445 152.4616401974218 54.358140785587864 H 0.0 **** 0.06
26055 H 31.310119215291728 152.5328444874981 55.105766893173325 H 0.0 **** 0.06
26056 C 53.91519866018798 42.545207134680766 62.81822397182515 C 0.0 **** -0.24
26057 H 54.779628001382434 42.79415803013302 62.20318315759931 H 0.0 **** 0.06
26058 H 53.091050058993744 43.21697199889371 62.57509241993051 H 0.0 **** 0.06
26059 H 54.1745751619771 42.654526893924924 63.871683939602434 H 0.0 **** 0.06
26060 H 53.6146006825351 41.51622742661647 62.62291793503351 H 0.0 **** 0.06
26061 C 73.29805523276092 34.98507109455991 66.68993238712397 C 0.0 **** -0.24
26062 H 74.25716762654947 35.5002112004246 66.62858117428775 H 0.0 **** 0.06
26063 H 73.16959883365008 34.57634932829741 67.69289268988676 H 0.0 **** 0.06
26064 H 73.27305648745285 34.17510605699849 65.96111035881113 H 0.0 **** 0.06
26065 H 72.49389242241988 35.68970833052184 66.47840132302434 H 0.0 **** 0.06
26066 C 105.2549482393693 7.564899481182408 10.878990083170663 C 0.0 **** -0.24
26067 H 106.01939867201565 8.313476230369872 11.087130040064153 H 0.0 **** 0.06
26068 H 104.31635914069494 8.062438795772835 10.631923222801333 H 0.0 **** 0.06
26069 H 105.11221019571315 6.936044424731847 11.75809305862748 H 0.0 **** 0.06
26070 H 105.57049825982779 6.947576439860882 10.037702193748629 H 0.0 **** 0.06
26071 C 64.18545077981759 70.16768770161762 151.08704516998625 C 0.0 **** -0.24
26072 H 64.33959128058262 70.20695613488526 150.0092680520505 H 0.0 **** 0.06
26073 H 64.27289103734518 69.13624668463466 151.42903420043046 H 0.0 **** 0.06
26074 H 63.19174583867476 70.54615312952343 151.32563949298944 H 0.0 **** 0.06
26075 H 64.93666607747008 70.7810248126298 151.58443135257536 H 0.0 **** 0.06
26076 C 150.80500525899055 37.13268658185726 158.4029892780612 C 0.0 **** -0.24
26077 H 151.2254967800163 36.21174372890171 158.80713653306384 H 0.0 **** 0.06
26078 H 151.1255286092373 37.25455626452157 157.36835580825496 H 0.0 **** 0.06
26079 H 151.15110101855302 37.979778172738406 158.99390921376875 H 0.0 **** 0.06
26080 H 149.7166673090143 37.0827991739953 158.44258248674993 H 0.0 **** 0.06
26081 C 46.058377515048164 148.99220372439623 52.930869720443766 C 0.0 **** -0.24
26082 H 46.8202602241623 148.90746696415357 53.705631792875565 H 0.0 **** 0.06
26083 H 45.90076565466691 150.04506723033586 52.690865800410094 H 0.0 **** 0.06
26084 H 45.125993740111625 148.55802924722994 53.289714855137504 H 0.0 **** 0.06
26085 H 46.38796602365019 148.46135351950767 52.037713892743184 H 0.0 **** 0.06
26086 C 96.93541807499761 68.58367451504012 130.82668123890832 C 0.0 **** -0.24
26087 H 97.47254756961482 68.14031115801254 129.98794486237642 H 0.0 **** 0.06
26088 H 96.91049202918126 67.87825251773017 131.6566663737885 H 0.0 **** 0.06
26089 H 95.9169772346711 68.82137238059215 130.52011505782525 H 0.0 **** 0.06
26090 H 97.44333650459822 69.49619596217474 131.14094128019582 H 0.0 **** 0.06
26091 C 52.07465253633197 126.47272027331007 56.85225920556279 C 0.0 **** -0.24
26092 H 51.02119137294636 126.6279773402498 56.61825772565581 H 0.0 **** 0.06
26093 H 52.548659379452744 125.92042974530017 56.04079476169767 H 0.0 **** 0.06
26094 H 52.16102369186285 125.90487362549038 57.77829216619763 H 0.0 **** 0.06
26095 H 52.56574325707942 127.43858167391858 56.97065901111078 H 0.0 **** 0.06
26096 C 29.194009608020906 103.49491156079858 37.17603276268545 C 0.0 **** -0.24
26097 H 29.502913709187112 103.56732674539282 36.133296387043856 H 0.0 **** 0.06
26098 H 29.855968199551285 104.10060393308802 37.79465414800387 H 0.0 **** 0.06
26099 H 29.24533938460371 102.4545454492422 37.49810803770936 H 0.0 **** 0.06
26100 H 28.170091231449078 103.85625271268214 37.276986307169466 H 0.0 **** 0.06
26101 C 125.28840738201365 9.483115050801786 144.911619729447 C 0.0 **** -0.24
26102 H 125.82899714410951 9.42863903249583 143.9661230553935 H 0.0 **** 0.06
26103 H 125.94716565540443 9.178404326871998 145.7246361862027 H 0.0 **** 0.06
26104 H 124.4244240829048 8.818915985085603 144.8742386685173 H 0.0 **** 0.06
26105 H 124.95288740116109 10.50685447192879 145.07867902653305 H 0.0 **** 0.06
26106 C 50.53343091174456 94.81834124163868 90.21635483994834 C 0.0 **** -0.24
26107 H 49.67779394280913 95.25201014774488 89.69909136512024 H 0.0 **** 0.06
26108 H 50.67133947482618 95.31982040481795 91.17459998191232 H 0.0 **** 0.06
26109 H 51.42876255858944 94.94574245610995 89.60721852302053 H 0.0 **** 0.06
26110 H 50.356296029244675 93.75611936918556 90.3828743956445 H 0.0 **** 0.06
26111 C 146.99294607813454 50.293058894751994 112.84706740534605 C 0.0 **** -0.24
26112 H 147.94624711640145 49.826757216946504 113.09828000179323 H 0.0 **** 0.06
26113 H 147.16357264897314 51.11655259152897 112.15300214389808 H 0.0 **** 0.06
26114 H 146.52528958442284 50.67406555178229 113.75469517797956 H 0.0 **** 0.06
26115 H 146.3383450105943 49.555212252488104 112.3825874298102 H 0.0 **** 0.06
26116 C 18.826286482165152 12.925739241458189 69.5531094621147 C 0.0 **** -0.24
26117 H 19.01463519880602 13.885351244901699 69.07182429136846 H 0.0 **** 0.06
26118 H 19.72811193961558 12.314166150743887 69.50866747026596 H 0.0 **** 0.06
26119 H 18.014386460307712 12.414457688958748 69.03695120002561 H 0.0 **** 0.06
26120 H 18.548513177352284 13.089742299891668 70.59458143124137 H 0.0 **** 0.06
26121 C 119.01760028563262 134.02662273931585 40.59425212055851 C 0.0 **** -0.24
26122 H 119.43785897787501 134.94780119612994 40.190327937774754 H 0.0 **** 0.06
26123 H 118.48820945552836 134.24505943483223 41.5214088492021 H 0.0 **** 0.06
26124 H 119.82109958214093 133.31741570784857 40.79296830530717 H 0.0 **** 0.06
26125 H 118.3241397357105 133.5964043145703 39.87192642021114 H 0.0 **** 0.06
26126 C 44.35249254474218 122.67913645805663 62.10465388313693 C 0.0 **** -0.24
26127 H 44.702590537290135 122.2458674868661 63.0413231076617 H 0.0 **** 0.06
26128 H 44.49905077419123 123.75935069643774 62.12691961217658 H 0.0 **** 0.06
26129 H 43.293059102734574 122.45825591798734 61.976071561748626 H 0.0 **** 0.06
26130 H 44.916654524947035 122.25307585301778 61.27401405316664 H 0.0 **** 0.06
26131 C 107.92444763979793 102.66343834505454 81.61724836453294 C 0.0 **** -0.24
26132 H 108.4124692790532 102.16183263753629 82.45245398398544 H 0.0 **** 0.06
26133 H 108.34508981170958 102.30008526231 80.67903698659819 H 0.0 **** 0.06
26134 H 108.0869796677548 103.73889265876088 81.69535243363123 H 0.0 **** 0.06
26135 H 106.85525365001203 102.45391652447026 81.6423613661756 H 0.0 **** 0.06
26136 C 95.02932771921249 116.14123517640405 58.85838615227679 C 0.0 **** -0.24
26137 H 95.40088122928341 116.72885941140521 58.01923563766795 H 0.0 **** 0.06
26138 H 95.09785485189775 116.73152969351304 59.77302396008062 H 0.0 **** 0.06
26139 H 95.62993210219673 115.23793238823896 58.96334467617501 H 0.0 **** 0.06
26140 H 93.98985332891723 115.86777318560314 58.67839066655257 H 0.0 **** 0.06
26141 C 114.49087401524204 101.204497688761 25.520080714571492 C 0.0 **** -0.24
26142 H 114.66892216136722 101.83404059243435 24.64784080038217 H 0.0 **** 0.06
26143 H 114.60110445031765 100.1572240838727 25.239016489891952 H 0.0 **** 0.06
26144 H 113.48013792122481 101.37702250813678 25.891022241555305 H 0.0 **** 0.06
26145 H 115.21127971504629 101.45083504619922 26.298906326375715 H 0.0 **** 0.06
26146 C 9.775552602566933 39.517160412328565 130.307135516085 C 0.0 **** -0.24
26147 H 8.789115401244544 39.06317837387985 130.2203555076325 H 0.0 **** 0.06
26148 H 10.109964605914769 39.85136294327913 129.3242544547317 H 0.0 **** 0.06
26149 H 10.47944421470524 38.78247319374606 130.70002378266847 H 0.0 **** 0.06
26150 H 9.724845908646813 40.36972488305764 130.98409969442173 H 0.0 **** 0.06
26151 C 57.83426204450903 19.88121202526861 101.17551835080656 C 0.0 **** -0.24
26152 H 57.818949305327166 20.31082854844624 100.17437950518789 H 0.0 **** 0.06
26153 H 58.8463349105306 19.55043353824658 101.41267867229305 H 0.0 **** 0.06
26154 H 57.15475190079192 19.028952541462104 101.21570094433417 H 0.0 **** 0.06
26155 H 57.518528989959265 20.63214542424953 101.8986009700198 H 0.0 **** 0.06
26156 C 160.39628588683695 100.88009592951141 140.14980399829892 C 0.0 **** -0.24
26157 H 160.919926929219 101.8256975887738 140.0059170783751 H 0.0 **** 0.06
26158 H 160.9441996993967 100.08234195679273 139.64803919525104 H 0.0 **** 0.06
26159 H 159.3934055911965 100.95312095073362 139.72837745321925 H 0.0 **** 0.06
26160 H 160.3275739048153 100.6610659727057 141.21526886946174 H 0.0 **** 0.06
26161 C 107.13585188239745 86.5108977633827 50.627263032434485 C 0.0 **** -0.24
26162 H 107.47318003797844 85.52983815330134 50.293680065187004 H 0.0 **** 0.06
26163 H 106.05071000456306 86.56972881360986 50.5404247835711 H 0.0 **** 0.06
26164 H 107.59263492483564 87.28196613928105 50.00653790836577 H 0.0 **** 0.06
26165 H 107.42715692850513 86.66084974490028 51.66586669460719 H 0.0 **** 0.06
26166 C 4.18563403171845 137.02274591684073 42.7622878762961 C 0.0 **** -0.24
26167 H 3.9205157441962797 136.0952034913933 42.25315601625681 H 0.0 **** 0.06
26168 H 3.2897815329017988 137.46605253222617 43.19788450460737 H 0.0 **** 0.06
26169 H 4.623761642328361 137.71750682008388 42.045970677219984 H 0.0 **** 0.06
26170 H 4.907062104235138 136.8106974361989 43.551317552918164 H 0.0 **** 0.06
26171 C 111.88966239758153 154.9573704318393 54.72545778507465 C 0.0 **** -0.24
26172 H 111.50760039883122 154.38188533468087 53.88139236509936 H 0.0 **** 0.06
26173 H 111.30344380661825 155.8702062628623 54.83698985716636 H 0.0 **** 0.06
26174 H 112.93318631677454 155.21616710222963 54.544947448978135 H 0.0 **** 0.06
26175 H 111.8138020905493 154.36173615328298 55.63445714540589 H 0.0 **** 0.06
26176 C 121.2991037348877 41.849565332118516 17.408390208255128 C 0.0 **** -0.24
26177 H 121.32901991713345 42.469312476790975 18.303516064306194 H 0.0 **** 0.06
26178 H 120.31495342333733 41.38937000805478 17.317476519395825 H 0.0 **** 0.06
26179 H 122.0596701622232 41.07158725864707 17.47984441935955 H 0.0 **** 0.06
26180 H 121.49397876676392 42.4683370441839 16.532073389496105 H 0.0 **** 0.06
26181 C 83.50587476710376 135.03902887309255 24.935674157733473 C 0.0 **** -0.24
26182 H 82.59822306567867 135.5212493331627 24.572436385792088 H 0.0 **** 0.06
26183 H 84.37817022830751 135.57642942537956 24.562045777216298 H 0.0 **** 0.06
26184 H 83.5356705232773 134.00787372647846 24.582243595954367 H 0.0 **** 0.06
26185 H 83.51203574498169 135.04928451910627 26.02590062005143 H 0.0 **** 0.06
26186 C 6.170436567264574 34.47339473457373 42.89530805157007 C 0.0 **** -0.24
26187 H 6.387905070140846 35.51293132750038 42.648362708351556 H 0.0 **** 0.06
26188 H 6.119474048910035 34.36100950566026 43.97917395426002 H 0.0 **** 0.06
26189 H 6.959033743397043 33.83352747511225 42.49978152963834 H 0.0 **** 0.06
26190 H 5.215315295388507 34.187571573237534 42.454844286810314 H 0.0 **** 0.06
26191 C 161.20916668121782 125.20488894604489 44.23680953338172 C 0.0 **** -0.24
26192 H 160.23367924369904 124.71871270896187 44.27489917278618 H 0.0 **** 0.06
26193 H 161.20953036740778 126.06929920585853 44.9014934084405 H 0.0 **** 0.06
26194 H 161.41306148187277 125.53055886264963 43.217184187250496 H 0.0 **** 0.06
26195 H 161.97807874761781 124.50071875817159 44.554410591356 H 0.0 **** 0.06
26196 C 123.95807610243622 65.66151819609559 23.35421379317998 C 0.0 **** -0.24
26197 H 124.944091573864 66.10596000561796 23.48838090356884 H 0.0 **** 0.06
26198 H 123.31603890579694 65.94273045306917 24.189382507628608 H 0.0 **** 0.06
26199 H 124.05162730369165 64.57654068020163 23.315370536658435 H 0.0 **** 0.06
26200 H 123.52171464407519 66.02219689109408 22.422379884133875 H 0.0 **** 0.06
26201 C 146.1276930423934 66.88089040055675 66.23141318063495 C 0.0 **** -0.24
26202 H 145.35731366253347 66.16081033069325 66.5093307839897 H 0.0 **** 0.06
26203 H 146.35956458561378 67.51330225470426 67.08822569342783 H 0.0 **** 0.06
26204 H 145.76627708903408 67.49920126137509 65.41002226931971 H 0.0 **** 0.06
26205 H 147.0252023319819 66.34820570839142 65.9180508811803 H 0.0 **** 0.06
26206 C 112.49424145789712 92.8936996010986 93.90456697172066 C 0.0 **** -0.24
26207 H 113.44478720328411 92.47239280139672 94.2312980735969 H 0.0 **** 0.06
26208 H 112.24685286105176 93.75519542886559 94.52511486469298 H 0.0 **** 0.06
26209 H 111.71259426472449 92.14046720356154 93.99823898752318 H 0.0 **** 0.06
26210 H 112.57482839550568 93.20687077318723 92.86284989499431 H 0.0 **** 0.06
26211 C 57.706762448050284 146.90418161361913 37.94300998138698 C 0.0 **** -0.24
26212 H 58.347171072671244 146.04235969806507 38.129409070119095 H 0.0 **** 0.06
26213 H 58.29492819722043 147.81850542223964 38.022312464521065 H 0.0 **** 0.06
26214 H 56.90232552312551 146.92398541018233 38.67929453599328 H 0.0 **** 0.06
26215 H 57.281370146109026 146.83007155410274 36.94210541589422 H 0.0 **** 0.06
26216 C 48.55614376732808 131.18192286662529 122.55678773857866 C 0.0 **** -0.24
26217 H 48.90156414212743 132.14991344487942 122.1922772534233 H 0.0 **** 0.06
26218 H 48.810343079280756 130.40946849961503 121.83193894431426 H 0.0 **** 0.06
26219 H 47.4749423101552 131.210948281933 122.69412603713033 H 0.0 **** 0.06
26220 H 49.038005989872374 130.96066603567166 123.50881087421627 H 0.0 **** 0.06
26221 C 160.94845925415157 90.81173973945488 160.53053176020615 C 0.0 **** -0.24
26222 H 160.79436406288633 89.88041690680245 161.0753044676338 H 0.0 **** 0.06
26223 H 161.6003244190885 91.46688025884384 161.10828218850014 H 0.0 **** 0.06
26224 H 159.98821727902552 91.30261194961784 160.3710962290518 H 0.0 **** 0.06
26225 H 161.41102979844266 90.59617046571424 159.5669783060269 H 0.0 **** 0.06
26226 C 56.377785821899394 80.27226111156074 163.0229828938869 C 0.0 **** -0.24
26227 H 56.058904110400746 81.26981775281587 163.3252411598763 H 0.0 **** 0.06
26228 H 55.745622945040054 79.91996408170871 162.2086035466413 H 0.0 **** 0.06
26229 H 56.291769740272116 79.59206921088412 163.87036773469242 H 0.0 **** 0.06
26230 H 57.41518314725302 80.30776874899931 162.6900762127694 H 0.0 **** 0.06
26231 C 31.377705007058807 43.551719345994286 81.7983936217422 C 0.0 **** -0.24
26232 H 31.953445203547943 44.438070233819076 81.53426837091838 H 0.0 **** 0.06
26233 H 31.235594876248967 42.93311825368028 80.91235115654267 H 0.0 **** 0.06
26234 H 30.40610226780484 43.85381156443793 82.19052152525862 H 0.0 **** 0.06
26235 H 31.91422188392346 42.98320555008473 82.55749014786448 H 0.0 **** 0.06
26236 C 136.55462356129357 84.4421450619075 122.93003352817894 C 0.0 **** -0.24
26237 H 136.16159657233564 83.43094407341643 122.82088121639035 H 0.0 **** 0.06
26238 H 136.66191711374944 84.89817343570432 121.9460355299882 H 0.0 **** 0.06
26239 H 137.52640768754733 84.4026810391609 123.42041807868068 H 0.0 **** 0.06
26240 H 135.86648604142923 85.03551168084407 123.53261935944852 H 0.0 **** 0.06
26241 C 31.632263634507524 30.789939070134892 121.74070203532429 C 0.0 **** -0.24
26242 H 30.89175011287196 31.562760515688318 121.53021771704238 H 0.0 **** 0.06
26243 H 32.625358106661 31.238751550113335 121.77334559817797 H 0.0 **** 0.06
26244 H 31.60059464498312 30.03377118482434 120.95720665139052 H 0.0 **** 0.06
26245 H 31.40999114671763 30.326951215349006 122.70212652187021 H 0.0 **** 0.06
26246 C 110.42597001637975 41.678409040136685 49.88925680079541 C 0.0 **** -0.24
26247 H 110.43841858313735 40.779468468419964 50.505458661502416 H 0.0 **** 0.06
26248 H 110.03138721478254 42.512206715100945 50.47186882751737 H 0.0 **** 0.06
26249 H 109.79361301833865 41.512268223155075 49.017434172452624 H 0.0 **** 0.06
26250 H 111.44006192499052 41.91050359801382 49.564542217571784 H 0.0 **** 0.06
26251 C 160.44235618262763 4.092080809570021 33.55852944734926 C 0.0 **** -0.24
26252 H 160.614074566849 3.3432668571289597 34.331300626553855 H 0.0 **** 0.06
26253 H 161.38580620051044 4.5759918700876625 33.30484850431748 H 0.0 **** 0.06
26254 H 159.7379437222939 4.838304426293384 33.92623892526234 H 0.0 **** 0.06
26255 H 160.03068959549876 3.609356580024709 32.67217805234753 H 0.0 **** 0.06
26256 C 67.8749489948361 134.30053225823173 112.52476974045527 C 0.0 **** -0.24
26257 H 67.74267959390804 134.63782958225977 113.55255043762199 H 0.0 **** 0.06
26258 H 67.25922744064381 134.9070443691661 111.86069227594032 H 0.0 **** 0.06
26259 H 67.57601625893959 133.2546775172877 112.44492626988836 H 0.0 **** 0.06
26260 H 68.92276944338705 134.40050455940695 112.24261254068588 H 0.0 **** 0.06
26261 C 81.57519319988715 70.28467014620068 148.15612989377829 C 0.0 **** -0.24
26262 H 82.35710405487883 70.93283992958757 147.76056422414004 H 0.0 **** 0.06
26263 H 81.77793445183724 69.25304221450483 147.867455909781 H 0.0 **** 0.06
26264 H 80.61031181461784 70.59200531817542 147.75313255760588 H 0.0 **** 0.06
26265 H 81.5563045908368 70.36114665539198 149.24305556056964 H 0.0 **** 0.06
26266 C 25.231075029578392 37.78569474930657 44.6624347949233 C 0.0 **** -0.24
26267 H 24.896755402668497 36.95829632335493 45.28794184768613 H 0.0 **** 0.06
26268 H 25.63776089445045 38.5770167690047 45.29300434505235 H 0.0 **** 0.06
26269 H 24.38756908106226 38.17298109862658 44.091407791937144 H 0.0 **** 0.06
26270 H 26.00380630381344 37.433900305758456 43.97773927802551 H 0.0 **** 0.06
26271 C 66.63697506955697 25.771846817817163 108.41635574608404 C 0.0 **** -0.24
26272 H 67.402824153256 26.025277323766545 109.14951126886848 H 0.0 **** 0.06
26273 H 65.87445389679637 26.550843085681947 108.40327362109718 H 0.0 **** 0.06
26274 H 66.17950227341818 24.819615233681247 108.68319367539212 H 0.0 **** 0.06
26275 H 67.09171863352853 25.692061771796716 107.42875638112415 H 0.0 **** 0.06
26276 C 105.59414881451596 141.04882839318614 151.66586882679223 C 0.0 **** -0.24
26277 H 105.77746431486435 140.04614930425976 151.2799945975048 H 0.0 **** 0.06
26278 H 105.77919139610896 141.0636674029928 152.73987250366923 H 0.0 **** 0.06
26279 H 104.5592085023037 141.32923309358708 151.47099810552405 H 0.0 **** 0.06
26280 H 106.26199481347788 141.75566203166204 151.1728122334359 H 0.0 **** 0.06
26281 C 74.94976175322857 57.21184624916262 38.40536408186955 C 0.0 **** -0.24
26282 H 74.27328822252444 56.49815747610381 38.87474849667075 H 0.0 **** 0.06
26283 H 75.98007723868852 56.946483613676676 38.64338833217067 H 0.0 **** 0.06
26284 H 74.73711376880092 58.21322431776487 38.77753152478758 H 0.0 **** 0.06
26285 H 74.81029132056456 57.187799622657536 37.32403543142121 H 0.0 **** 0.06
26286 C 40.82710949972582 144.85665292647292 76.458940031251 C 0.0 **** -0.24
26287 H 41.51301205341076 145.10409140223504 75.64810294839359 H 0.0 **** 0.06
26288 H 41.39796326777457 144.5472450625312 77.33455559267676 H 0.0 **** 0.06
26289 H 40.173235239759435 144.04290651180042 76.14509120665028 H 0.0 **** 0.06
26290 H 40.22645948280518 145.73133494557266 76.70578560787158 H 0.0 **** 0.06
26291 C 1.1473323617241107 67.88053740635075 38.05315840229622 C 0.0 **** -0.24
26292 H 1.5455353308759285 66.87487886567612 38.19152812357865 H 0.0 **** 0.06
26293 H 1.9672809097667852 68.59839103810191 38.054334679351115 H 0.0 **** 0.06
26294 H 0.4589122311391023 68.11397208174128 38.86521863688745 H 0.0 **** 0.06
26295 H 0.6185301214135919 67.93316424847558 37.10124008881047 H 0.0 **** 0.06
26296 C 35.75348142577157 61.58664984463189 65.92332212352903 C 0.0 **** -0.24
26297 H 35.95587441050131 61.16888046201427 66.91014465829676 H 0.0 **** 0.06
26298 H 36.09310035231546 60.88945527768078 65.15740530371403 H 0.0 **** 0.06
26299 H 36.28264947679969 62.53238035965512 65.8152676824686 H 0.0 **** 0.06
26300 H 34.68200560484483 61.754889321131316 65.81406597656036 H 0.0 **** 0.06
26301 C 157.2075031694955 139.19703586337926 99.51734944122319 C 0.0 **** -0.24
26302 H 157.67931209910483 139.0436334251453 100.48791674071327 H 0.0 **** 0.06
26303 H 157.93661126672384 139.61133442755363 98.82094514645689 H 0.0 **** 0.06
26304 H 156.37289224149782 139.88988162337637 99.62500728165767 H 0.0 **** 0.06
26305 H 156.84118691178656 138.2439817311857 99.13676429503514 H 0.0 **** 0.06
26306 C 92.71715892361489 137.46382886032637 8.585335357009797 C 0.0 **** -0.24
26307 H 92.53207402197081 138.51625260065003 8.369382312265145 H 0.0 **** 0.06
26308 H 92.79493728612297 136.90949649302095 7.6498440314865945 H 0.0 **** 0.06
26309 H 91.89236821298168 137.06498648684257 9.176792822182932 H 0.0 **** 0.06
26310 H 93.64663756541604 137.36604346350816 9.145354371584403 H 0.0 **** 0.06
26311 C 52.6967118743307 55.79382640994946 109.8061457918304 C 0.0 **** -0.24
26312 H 52.46600322958389 56.47783962863937 110.62218577933135 H 0.0 **** 0.06
26313 H 52.76904185924566 54.777352725698165 110.19364352548317 H 0.0 **** 0.06
26314 H 53.6462471835285 56.07878744895267 109.35129547883193 H 0.0 **** 0.06
26315 H 51.906315315281745 55.842099357268054 109.0565506454401 H 0.0 **** 0.06
26316 C 84.47323176724969 137.5563327003505 36.952502723875625 C 0.0 **** -0.24
26317 H 85.5421037544047 137.451413523489 37.13482786239243 H 0.0 **** 0.06
26318 H 84.208412734443 138.6140068722724 36.943721760273206 H 0.0 **** 0.06
26319 H 83.91837869569268 137.04816483617213 37.74075606305007 H 0.0 **** 0.06
26320 H 84.22409188992987 137.11140565388013 35.9884959095273 H 0.0 **** 0.06
26321 C 20.785473092950127 137.95339784286762 94.55414420199588 C 0.0 **** -0.24
26322 H 19.973906770742218 137.7915452261547 95.26343306116236 H 0.0 **** 0.06
26323 H 20.37168814813748 138.1167205547812 93.55881532102114 H 0.0 **** 0.06
26324 H 21.433868129976787 137.0775441381158 94.53927781986118 H 0.0 **** 0.06
26325 H 21.36227577897668 138.82704799261342 94.8562499896656 H 0.0 **** 0.06
26326 C 146.15367544403847 33.04833168690004 85.69061229277867 C 0.0 **** -0.24
26327 H 145.3515329612003 32.97466071462111 86.42497315931186 H 0.0 **** 0.06
26328 H 146.1116278470834 34.02208345939664 85.20237019272885 H 0.0 **** 0.06
26329 H 146.03571106464858 32.26275322520786 84.9437771282033 H 0.0 **** 0.06
26330 H 147.11534643414916 32.93306281054865 86.19024299396179 H 0.0 **** 0.06
26331 C 99.86107677159626 97.93990076363002 74.53373834045544 C 0.0 **** -0.24
26332 H 99.97823405470484 98.09310786202775 75.60740433502576 H 0.0 **** 0.06
26333 H 99.37791879286945 96.97863464768415 74.356045610145 H 0.0 **** 0.06
26334 H 100.84040127944854 97.9485104466412 74.056753860407 H 0.0 **** 0.06
26335 H 99.24601168609158 98.73786056841772 74.11817735168492 H 0.0 **** 0.06
26336 C 50.951716159220965 72.07432641903037 159.63038979496892 C 0.0 **** -0.24
26337 H 50.018674891614154 72.53125659886362 159.3005858225826 H 0.0 **** 0.06
26338 H 51.31476321965803 71.39492158808154 158.85773215237288 H 0.0 **** 0.06
26339 H 50.777531685813756 71.51767761392053 160.5507504349033 H 0.0 **** 0.06
26340 H 51.69363675212996 72.85117241110063 159.80906807209465 H 0.0 **** 0.06
26341 C 22.359656851049706 76.55978054992511 83.29348885846017 C 0.0 **** -0.24
26342 H 22.3408889149378 76.57687023067618 84.38383586996886 H 0.0 **** 0.06
26343 H 21.776967770301233 77.39620380837283 82.90758417810062 H 0.0 **** 0.06
26344 H 21.930153776120285 75.62229713001207 82.93806115913713 H 0.0 **** 0.06
26345 H 23.389435871540122 76.64217026305678 82.94673398681088 H 0.0 **** 0.06
26346 C 46.524349952519 0.24659945150338558 3.131066846537138 C 0.0 **** -0.24
26347 H 45.56624743805526 0.00886539195756697 2.6699997004613962 H 0.0 **** 0.06
26348 H 46.39148592668204 0.3628014942327624 4.206906103307681 H 0.0 **** 0.06
26349 H 46.90878727042289 1.1765766651454541 2.709896756294654 H 0.0 **** 0.06
26350 H 47.231199251810324 -0.5599014138021978 2.936009729248859 H 0.0 **** 0.06
26351 C 3.8845097272702915 85.8570467891787 40.04408336897205 C 0.0 **** -0.24
26352 H 2.8009867854860246 85.84129696512264 39.93085879997261 H 0.0 **** 0.06
26353 H 4.140900053302907 85.75770595374013 41.098755000357585 H 0.0 **** 0.06
26354 H 4.277073088108274 86.79906449823528 39.660941743127125 H 0.0 **** 0.06
26355 H 4.319084954828433 85.02777582813451 39.48506643796787 H 0.0 **** 0.06
26356 C 121.34094855046555 124.32342002399366 45.49066332906318 C 0.0 **** -0.24
26357 H 121.38176719179395 124.1146115767877 44.42235500280418 H 0.0 **** 0.06
26358 H 121.10423228539506 125.37623783661064 45.64621697233599 H 0.0 **** 0.06
26359 H 122.30838837508185 124.09828978069365 45.941034793656854 H 0.0 **** 0.06
26360 H 120.57181142265844 123.70487765231343 45.95336655334569 H 0.0 **** 0.06
26361 C 67.4627938142755 102.38064324969531 52.50457660926968 C 0.0 **** -0.24
26362 H 67.49727464596803 103.41526177093326 52.162464842961114 H 0.0 **** 0.06
26363 H 68.44108390976355 102.09196189881746 52.887817261174305 H 0.0 **** 0.06
26364 H 67.19106727816727 101.73154908478963 51.67249110095689 H 0.0 **** 0.06
26365 H 66.71960949422 102.28578689389724 53.296221852862004 H 0.0 **** 0.06
26366 C 20.598919874937685 110.00691656345691 116.01675000361001 C 0.0 **** -0.24
26367 H 21.45771431664498 109.51303459190103 116.47183963720329 H 0.0 **** 0.06
26368 H 19.89301113835154 110.29714725690542 116.79514891578265 H 0.0 **** 0.06
26369 H 20.11292618877181 109.32272916527626 115.32122746937614 H 0.0 **** 0.06
26370 H 20.932931379541827 110.89512795688785 115.47980614053517 H 0.0 **** 0.06
26371 C 146.15013585914267 16.3516764813927 153.25482829366763 C 0.0 **** -0.24
26372 H 145.86119733089146 17.215875020729072 153.85217094111255 H 0.0 **** 0.06
26373 H 145.54215738375422 16.3154403706547 152.35017973704223 H 0.0 **** 0.06
26374 H 145.99398362400564 15.441382325507789 153.83422531106876 H 0.0 **** 0.06
26375 H 147.20265416553602 16.433427233151463 152.9833363274379 H 0.0 **** 0.06
26376 C 139.78990059557805 137.7105136499116 21.844641841037685 C 0.0 **** -0.24
26377 H 139.99741813555994 138.7293417891395 21.51769911652667 H 0.0 **** 0.06
26378 H 138.86388079069837 137.3632880548102 21.38494781012355 H 0.0 **** 0.06
26379 H 139.68663589553506 137.6910317641832 22.929578113173676 H 0.0 **** 0.06
26380 H 140.61078557674597 137.0582489996846 21.54589354692348 H 0.0 **** 0.06
26381 C 122.87387925713824 27.028679045438935 28.007364485677954 C 0.0 **** -0.24
26382 H 122.41939657200282 27.19107238284647 27.030158396149773 H 0.0 **** 0.06
26383 H 122.19510719130983 26.448803475926667 28.632104942079195 H 0.0 **** 0.06
26384 H 123.07135829357276 27.99134480632972 28.479268637366943 H 0.0 **** 0.06
26385 H 123.81030663739563 26.48532262376304 27.885428505767464 H 0.0 **** 0.06
26386 C 38.36039253755297 155.54144155662988 31.053462621790402 C 0.0 **** -0.24
26387 H 37.27377413678619 155.5163689882374 31.12936152798987 H 0.0 **** 0.06
26388 H 38.77091120821996 154.59087392537907 31.39566795307499 H 0.0 **** 0.06
26389 H 38.74880886907516 156.34942593330277 31.67255778624122 H 0.0 **** 0.06
26390 H 38.64792113466092 155.7083307142986 30.01508494943645 H 0.0 **** 0.06
26391 C 73.05866339173392 40.24906034628361 103.90831376539253 C 0.0 **** -0.24
26392 H 73.23500770923816 41.31709769224267 104.04457760372378 H 0.0 **** 0.06
26393 H 71.99418040132988 40.07500467132708 103.75115956880114 H 0.0 **** 0.06
26394 H 73.38846831748488 39.71134981373524 104.79714667701518 H 0.0 **** 0.06
26395 H 73.61744851199956 39.896510579823726 103.0420882344097 H 0.0 **** 0.06
26396 C 11.133706637691908 50.06609369733849 57.1890943963044 C 0.0 **** -0.24
26397 H 10.263435711119854 50.562429496623935 56.761077914254386 H 0.0 **** 0.06
26398 H 12.04095132702247 50.48384393249452 56.75174591494509 H 0.0 **** 0.06
26399 H 11.085575191662613 48.99869481133206 56.97389255165655 H 0.0 **** 0.06
26400 H 11.146813067542695 50.219053740198405 58.26821964483641 H 0.0 **** 0.06
26401 C 161.8446839154472 143.63100405447983 101.28818994491243 C 0.0 **** -0.24
26402 H 161.28516151785374 143.4118076572637 100.37867661970654 H 0.0 **** 0.06
26403 H 161.17937660144025 144.08578619118396 102.02198639925683 H 0.0 **** 0.06
26404 H 162.65650889425928 144.32086228202735 101.05704130361775 H 0.0 **** 0.06
26405 H 162.25662636669762 142.7073903446044 101.69317876900143 H 0.0 **** 0.06
26406 C 26.347006916158165 106.71148696657866 136.07048480081943 C 0.0 **** -0.24
26407 H 26.17573949154408 107.09250572436184 135.06321221522887 H 0.0 **** 0.06
26408 H 25.79370615350814 105.78221340323796 136.2054320512146 H 0.0 **** 0.06
26409 H 26.00596381401769 107.44663581326367 136.79954764940084 H 0.0 **** 0.06
26410 H 27.41091698006838 106.52506999833577 136.21205069839658 H 0.0 **** 0.06
26411 C 7.181181519967424 143.7004425253251 42.608153410215294 C 0.0 **** -0.24
26412 H 8.223575620143606 143.9967177146707 42.493661537094056 H 0.0 **** 0.06
26413 H 6.547178664562011 144.58702346530754 42.57537382803332 H 0.0 **** 0.06
26414 H 7.0506247723076 143.19453574676868 43.56466431807404 H 0.0 **** 0.06
26415 H 6.90440123157984 143.0254599380886 41.79877030507717 H 0.0 **** 0.06
26416 C 160.92982047769124 51.412940210654824 93.21796489044193 C 0.0 **** -0.24
26417 H 160.29936518735548 50.68489023841104 92.70759422328447 H 0.0 **** 0.06
26418 H 161.48211027807042 50.91701583580793 94.0171068626387 H 0.0 **** 0.06
26419 H 160.3057683057063 52.200025943564086 93.64141240330123 H 0.0 **** 0.06
26420 H 161.63079094458402 51.848517213443884 92.50705921037581 H 0.0 **** 0.06
26421 C 144.7121634517746 22.26140224031191 104.62605369771956 C 0.0 **** -0.24
26422 H 145.78877528375284 22.34129205880307 104.47737141784233 H 0.0 **** 0.06
26423 H 144.50949634287727 21.925415933981235 105.64295541335255 H 0.0 **** 0.06
26424 H 144.2999535500861 21.544470445529136 103.91675149008051 H 0.0 **** 0.06
26425 H 144.2505945554667 23.236646018268893 104.46610485418549 H 0.0 **** 0.06
26426 C 155.68982582912392 108.75638197662363 16.019440894651147 C 0.0 **** -0.24
26427 H 156.5056471068704 108.31409598622488 15.447860108713861 H 0.0 **** 0.06
26428 H 154.74941345717866 108.5984846220118 15.491346343757755 H 0.0 **** 0.06
26429 H 155.86632495562012 109.82615634997634 16.13499490414418 H 0.0 **** 0.06
26430 H 155.6381060316964 108.28857871332582 17.002232329256074 H 0.0 **** 0.06
26431 C 68.11423250345044 146.71151382027915 60.81890638783932 C 0.0 **** -0.24
26432 H 68.54759949091567 147.52841943182943 61.396633967505295 H 0.0 **** 0.06
26433 H 67.08545274205751 146.95771271054326 60.55669625371627 H 0.0 **** 0.06
26434 H 68.12970120630756 145.798200040752 61.41344192737506 H 0.0 **** 0.06
26435 H 68.6957521742107 146.56180551292232 59.9095680942587 H 0.0 **** 0.06
26436 C 72.52189633809847 156.0170653300757 64.66864729254975 C 0.0 **** -0.24
26437 H 73.49828671640915 156.14461813891373 65.13696448309128 H 0.0 **** 0.06
26438 H 71.73986596382778 156.26137814683605 65.38762197895225 H 0.0 **** 0.06
26439 H 72.40655891285513 154.983011956829 64.34371536589119 H 0.0 **** 0.06
26440 H 72.44382785498587 156.68020012219313 63.806726510294936 H 0.0 **** 0.06
26441 C 73.86943604012228 51.502256810912854 54.66174933865135 C 0.0 **** -0.24
26442 H 74.74168304904136 51.504026140593226 54.00865450775983 H 0.0 **** 0.06
26443 H 73.36058452071615 50.54169275975312 54.58625982365891 H 0.0 **** 0.06
26444 H 73.1891618528906 52.29929769986512 54.359716653825345 H 0.0 **** 0.06
26445 H 74.18646196777624 51.6672188616497 55.69153812347798 H 0.0 **** 0.06
26446 C 85.93058173646443 81.26246957921455 140.0218298691426 C 0.0 **** -0.24
26447 H 85.52815654863743 81.00023066846848 140.9999318866104 H 0.0 **** 0.06
26448 H 85.11080483282483 81.39498554528103 139.31483818387755 H 0.0 **** 0.06
26449 H 86.58543521474748 80.46282765485256 139.6728963104018 H 0.0 **** 0.06
26450 H 86.49761781023206 82.18971328410765 140.09901816838595 H 0.0 **** 0.06
26451 C 126.21167030931048 134.6527189480709 148.3383842658371 C 0.0 **** -0.24
26452 H 127.1432374054701 134.67171853798246 148.90464007253956 H 0.0 **** 0.06
26453 H 125.41026915733704 134.26953220592543 148.96913693894766 H 0.0 **** 0.06
26454 H 126.32967557062435 134.00858313279252 147.4664612787714 H 0.0 **** 0.06
26455 H 125.96588709834566 135.6634710964702 148.01175055319618 H 0.0 **** 0.06
26456 C 86.08231470451933 103.62782902398163 108.4369631998295 C 0.0 **** -0.24
26457 H 85.0875306681311 103.93786891255638 108.75748286370538 H 0.0 **** 0.06
26458 H 86.75637027568467 103.62955182875135 109.29294389078274 H 0.0 **** 0.06
26459 H 86.452476925069 104.3220250581914 107.68179918742464 H 0.0 **** 0.06
26460 H 86.03138313049678 102.6248025250537 108.01455031822923 H 0.0 **** 0.06
26461 C 152.30651094319222 54.393430095381675 119.12674481769832 C 0.0 **** -0.24
26462 H 152.0147422716181 53.699969688672155 119.91595745430584 H 0.0 **** 0.06
26463 H 151.41675234524217 54.744778944836426 118.60470031238594 H 0.0 **** 0.06
26464 H 152.9645931041709 53.885510280949006 118.42205327268434 H 0.0 **** 0.06
26465 H 152.82942706294128 55.24319237209336 119.56555190548303 H 0.0 **** 0.06
26466 C 51.44319060442987 21.646427297896338 9.314063263583506 C 0.0 **** -0.24
26467 H 51.4321681377301 22.63448847792283 9.774266987844172 H 0.0 **** 0.06
26468 H 51.750313603886624 20.90562516571419 10.05257564158461 H 0.0 **** 0.06
26469 H 52.145347384761905 21.64208984482638 8.480083100608404 H 0.0 **** 0.06
26470 H 50.44462670677217 21.405718903067168 8.949416222021995 H 0.0 **** 0.06
26471 C 41.483292669436594 106.26006586356272 40.70658254688196 C 0.0 **** -0.24
26472 H 40.550389947939266 106.13265217188246 40.15702351181419 H 0.0 **** 0.06
26473 H 41.26266919847538 106.57858765757948 41.72536319303431 H 0.0 **** 0.06
26474 H 42.095413184236236 107.01480245539153 40.21364240418633 H 0.0 **** 0.06
26475 H 42.022834736938904 105.31303962372806 40.72993905927272 H 0.0 **** 0.06
26476 C 78.42393398215751 98.34159626581891 0.1602366191543787 C 0.0 **** -0.24
26477 H 78.27644902385538 99.4218818266537 0.1687907034172369 H 0.0 **** 0.06
26478 H 77.46327029833537 97.84517590625512 0.019059413457146235 H 0.0 **** 0.06
26479 H 78.85926941053003 98.02723581530915 1.1083850275836866 H 0.0 **** 0.06
26480 H 79.09553771841985 98.07303075902166 -0.6540021587272697 H 0.0 **** 0.06
26481 C 133.83192189531874 141.45762097668648 127.9322038283662 C 0.0 **** -0.24
26482 H 133.8744976244369 140.37058381650516 128.00846267090088 H 0.0 **** 0.06
26483 H 132.79037985725523 141.779311224822 127.90377051499226 H 0.0 **** 0.06
26484 H 134.33605584554573 141.77714126987107 127.02023913990627 H 0.0 **** 0.06
26485 H 134.3267793084579 141.90157700420886 128.79511807492588 H 0.0 **** 0.06
26486 C 114.69186921937776 51.717269338775395 2.935304512720542 C 0.0 **** -0.24
26487 H 114.58679655489343 51.83512280170561 1.857432483588049 H 0.0 **** 0.06
26488 H 115.4393997710416 50.95231933439845 3.1455696378409144 H 0.0 **** 0.06
26489 H 113.73501145797661 51.41962027666409 3.363301117337997 H 0.0 **** 0.06
26490 H 115.00747936749588 52.66387108327115 3.375215026729826 H 0.0 **** 0.06
26491 C 58.38329811713933 122.52073314897021 3.6298344239590676 C 0.0 **** -0.24
26492 H 58.413805195294856 122.09358506201494 2.6271516696848423 H 0.0 **** 0.06
26493 H 57.415862654328805 122.30977225165725 4.08557665598925 H 0.0 **** 0.06
26494 H 58.529549745406996 123.59871097734671 3.5695925194647415 H 0.0 **** 0.06
26495 H 59.17509660335173 122.07984604487982 4.236177232124689 H 0.0 **** 0.06
26496 C 18.97115644506465 52.437258050760676 126.89543089726942 C 0.0 **** -0.24
26497 H 19.44632646218679 53.20106294778989 126.27972041701679 H 0.0 **** 0.06
26498 H 19.203327793579774 52.62130951385542 127.94466461618129 H 0.0 **** 0.06
26499 H 19.34442763580438 51.454584295526246 126.60664936558146 H 0.0 **** 0.06
26500 H 17.892155488434696 52.47335348855546 126.74981197649726 H 0.0 **** 0.06
26501 C 115.5342102071263 85.6548887424562 114.23553768857334 C 0.0 **** -0.24
26502 H 114.67011475111872 85.00379126559285 114.10158251907819 H 0.0 **** 0.06
26503 H 115.24429971869267 86.68701602484708 114.03692485399137 H 0.0 **** 0.06
26504 H 116.32272324962321 85.35923768573831 113.54365006518361 H 0.0 **** 0.06
26505 H 115.89823965131006 85.56997790008224 115.25919366268369 H 0.0 **** 0.06
26506 C 139.66327807714217 106.36813498408446 130.1634548976144 C 0.0 **** -0.24
26507 H 140.65178597838297 106.7196864872351 130.45954362563253 H 0.0 **** 0.06
26508 H 138.91872901678244 106.74353896187012 130.8661727898132 H 0.0 **** 0.06
26509 H 139.64858321359094 105.27865244795225 130.16622852388127 H 0.0 **** 0.06
26510 H 139.43301625891695 106.73206024911798 129.162096942241 H 0.0 **** 0.06
26511 C 118.01883184640747 106.381825661336 19.062870296149306 C 0.0 **** -0.24
26512 H 117.74308912231879 106.70668474885278 20.06637285909811 H 0.0 **** 0.06
26513 H 118.66761887550933 105.50790882458514 19.130439837967607 H 0.0 **** 0.06
26514 H 118.54593924166699 107.18769253922241 18.553472431918777 H 0.0 **** 0.06
26515 H 117.11924972579857 106.12427190728047 18.50481842148823 H 0.0 **** 0.06
26516 C 7.417819488252462 67.08629244127007 111.680591424145 C 0.0 **** -0.24
26517 H 6.6373965373283 67.50503080024072 112.31442342178539 H 0.0 **** 0.06
26518 H 8.394870374065817 67.39454667998297 112.05473015888103 H 0.0 **** 0.06
26519 H 7.288667440847718 67.44730029233915 110.65928295181592 H 0.0 **** 0.06
26520 H 7.3509746695147555 65.99848200790728 111.69267788205585 H 0.0 **** 0.06
26521 C 120.70805391132058 4.7642306242995005 49.04588805963688 C 0.0 **** -0.24
26522 H 121.59928416769668 5.301231938303488 49.37151528926144 H 0.0 **** 0.06
26523 H 120.84069364607876 4.431200519977438 48.01642290127427 H 0.0 **** 0.06
26524 H 119.84353313736719 5.424753181471942 49.10646541723098 H 0.0 **** 0.06
26525 H 120.55024094865493 3.89938038149603 49.69102293813113 H 0.0 **** 0.06
26526 C 26.049493388937 98.54269700145679 64.41113948925229 C 0.0 **** -0.24
26527 H 26.246398149290762 99.60506223659937 64.55566797703415 H 0.0 **** 0.06
26528 H 25.023339981372516 98.31964775965466 64.70318070826121 H 0.0 **** 0.06
26529 H 26.737137633042643 97.95946283891524 65.02567121217017 H 0.0 **** 0.06
26530 H 26.192793846756167 98.2858543287708 63.36239279724654 H 0.0 **** 0.06
26531 C 2.9778549172403714 41.05601722544354 40.38661178472702 C 0.0 **** -0.24
26532 H 2.8389013402315513 40.01921474971215 40.08026984182118 H 0.0 **** 0.06
26533 H 3.928430581647895 41.42395441346524 40.00028809750931 H 0.0 **** 0.06
26534 H 2.980299299465102 41.11582802467886 41.47494562493384 H 0.0 **** 0.06
26535 H 2.1643416881725486 41.66400678151476 39.99169184212566 H 0.0 **** 0.06
26536 C 127.62091495223513 51.998779347038706 91.02146182316142 C 0.0 **** -0.24
26537 H 126.74674067210148 51.80031588206347 90.40218611250793 H 0.0 **** 0.06
26538 H 128.42517059525866 52.3908596875053 90.39864344361854 H 0.0 **** 0.06
26539 H 127.94760037284433 51.0720982210303 91.49534328576112 H 0.0 **** 0.06
26540 H 127.36456324890085 52.728949681630226 91.7884689380565 H 0.0 **** 0.06
26541 C 2.701389317138535 80.77889963821814 32.83222115302448 C 0.0 **** -0.24
26542 H 3.5200710972428766 81.21687201486506 33.40375436681657 H 0.0 **** 0.06
26543 H 2.899748565796365 80.89436922466163 31.766929539618474 H 0.0 **** 0.06
26544 H 1.769940781397878 81.28398319084282 33.08640821473659 H 0.0 **** 0.06
26545 H 2.617201552043703 79.7185323642233 33.07369904213499 H 0.0 **** 0.06
26546 C 81.88366893281909 149.1625182289208 63.61772324517217 C 0.0 **** -0.24
26547 H 81.63667016754167 148.24191278348874 64.14706821644606 H 0.0 **** 0.06
26548 H 81.42459762539039 149.14689361781382 62.629647216992055 H 0.0 **** 0.06
26549 H 82.96577015087688 149.24271322657907 63.51578913922344 H 0.0 **** 0.06
26550 H 81.50838858162533 150.01628083632173 64.1812646373164 H 0.0 **** 0.06
26551 C 153.8994388197555 91.6645692393596 57.46789353005835 C 0.0 **** -0.24
26552 H 153.74483166781218 90.63196022273189 57.15696577994254 H 0.0 **** 0.06
26553 H 152.97877835219856 92.23010872953074 57.32152663580899 H 0.0 **** 0.06
26554 H 154.69646477845967 92.1088072448843 56.870571079090894 H 0.0 **** 0.06
26555 H 154.17793400292697 91.68924606790898 58.52091979313019 H 0.0 **** 0.06
26556 C 34.893530590869474 45.90258177986924 90.44675429690517 C 0.0 **** -0.24
26557 H 33.826415706557654 45.99085385977219 90.6492578829111 H 0.0 **** 0.06
26558 H 35.37726497588223 45.38075457088712 91.2730903639903 H 0.0 **** 0.06
26559 H 35.32635199315217 46.897048125815346 90.34238883863387 H 0.0 **** 0.06
26560 H 35.04269367223037 45.34204129825294 89.52425845411268 H 0.0 **** 0.06
26561 C 33.49531495362976 81.84038269905035 117.33115317681148 C 0.0 **** -0.24
26562 H 32.599791627526145 82.44704128437246 117.19793088744865 H 0.0 **** 0.06
26563 H 33.96697459979785 82.09321031293375 118.28121015332556 H 0.0 **** 0.06
26564 H 34.19148567572931 82.03731606981263 116.51618543868253 H 0.0 **** 0.06
26565 H 33.22324553295121 80.78535508144593 117.32920834962803 H 0.0 **** 0.06
26566 C 37.7480757708866 22.988457056094575 114.60136936521033 C 0.0 **** -0.24
26567 H 38.582355030294195 22.395916509009396 114.22689553328613 H 0.0 **** 0.06
26568 H 37.02470278455314 22.33198028391169 115.08548055179239 H 0.0 **** 0.06
26569 H 37.26985671052336 23.507186487656128 113.77088267397238 H 0.0 **** 0.06
26570 H 38.11671673893807 23.719014452592376 115.32262288149505 H 0.0 **** 0.06
26571 C 30.0707655960353 39.528843399629864 79.60437217374181 C 0.0 **** -0.24
26572 H 30.21627586683619 38.50479900650714 79.26105062464728 H 0.0 **** 0.06
26573 H 29.496889818388183 40.08205711468145 78.86074186159465 H 0.0 **** 0.06
26574 H 31.041190482065282 40.005795499000214 79.74466513564579 H 0.0 **** 0.06
26575 H 29.53037693980157 39.521482271786624 80.55021133933701 H 0.0 **** 0.06
26576 C 115.01212555861804 61.004580525994015 93.4323558173312 C 0.0 **** -0.24
26577 H 114.48749479702016 60.48209855132592 92.63228581219312 H 0.0 **** 0.06
26578 H 114.4404212817258 60.92181975651897 94.35616948971926 H 0.0 **** 0.06
26579 H 115.12446324774209 62.055491828543495 93.16649396964692 H 0.0 **** 0.06
26580 H 115.99681172274839 60.557566863027375 93.57282585370604 H 0.0 **** 0.06
26581 C 46.60031689606694 8.644237647037798 102.12160760975007 C 0.0 **** -0.24
26582 H 46.30563460751921 7.813707691866135 102.76386863838965 H 0.0 **** 0.06
26583 H 46.09786079890114 8.553760262331316 101.1590939535553 H 0.0 **** 0.06
26584 H 47.68029634381247 8.622071917037026 101.97197150767886 H 0.0 **** 0.06
26585 H 46.3184517905876 9.585212418558058 102.59298470578767 H 0.0 **** 0.06
26586 C 23.364312137440123 135.84890495856172 137.23223803764967 C 0.0 **** -0.24
26587 H 24.23704030279569 136.46550466693625 137.448719499664 H 0.0 **** 0.06
26588 H 23.130258806480043 135.91236665009498 136.1696692160673 H 0.0 **** 0.06
26589 H 22.51401096523864 136.20553177292882 137.81425016192625 H 0.0 **** 0.06
26590 H 23.576786289736333 134.81354260098493 137.4970367403878 H 0.0 **** 0.06
26591 C 105.54572725446803 103.52432436690574 29.761689393649533 C 0.0 **** -0.24
26592 H 106.40585875260808 102.96954625700101 29.386557526931995 H 0.0 **** 0.06
26593 H 105.88169784582044 104.47410009966828 30.18033690516782 H 0.0 **** 0.06
26594 H 105.04751512706969 102.94151082362788 30.535655071059438 H 0.0 **** 0.06
26595 H 104.84992767861621 103.71337031878289 28.944550838201792 H 0.0 **** 0.06
26596 C 82.69543815524793 120.28148103029707 40.77576716021929 C 0.0 **** -0.24
26597 H 83.46249007539991 119.69960636944643 40.26365572699581 H 0.0 **** 0.06
26598 H 81.7219583842956 119.817586396347 40.61709845481252 H 0.0 **** 0.06
26599 H 82.68463613371225 121.29656772982139 40.379099594788386 H 0.0 **** 0.06
26600 H 82.9150374614398 120.31035435708873 41.842879301506 H 0.0 **** 0.06
26601 C 39.637199245513855 45.513760830284724 148.10843058219723 C 0.0 **** -0.24
26602 H 39.94249898903216 46.55455258875374 148.20664146559852 H 0.0 **** 0.06
26603 H 39.83020349936973 45.17291277561554 147.09105610399473 H 0.0 **** 0.06
26604 H 38.57254273041242 45.4246205139447 148.32515707815082 H 0.0 **** 0.06
26605 H 40.20279901751802 44.9018335358237 148.81128031561542 H 0.0 **** 0.06
26606 C 98.13667658384233 137.0746441971047 52.25648423125344 C 0.0 **** -0.24
26607 H 98.86761620174761 136.46567068933217 52.78776981932815 H 0.0 **** 0.06
26608 H 98.65502098203893 137.8159545938262 51.64806756050024 H 0.0 **** 0.06
26609 H 97.49395922155699 137.58079805291294 52.97675398716294 H 0.0 **** 0.06
26610 H 97.52960907418822 136.4363745971917 51.614649513062716 H 0.0 **** 0.06
26611 C 109.02387232986143 112.39849597685668 158.45390452101407 C 0.0 **** -0.24
26612 H 109.0015577364581 111.72940078006548 159.3146138562505 H 0.0 **** 0.06
26613 H 108.10007015793923 112.28946540002664 157.88583697814835 H 0.0 **** 0.06
26614 H 109.8729258734856 112.14611471710043 157.82003577777863 H 0.0 **** 0.06
26615 H 109.11957206537784 113.42843193301121 158.79754290665272 H 0.0 **** 0.06
26616 C 157.73428172305697 70.42399641923288 33.34814987207133 C 0.0 **** -0.24
26617 H 158.8188346051828 70.40267600830941 33.45185292213907 H 0.0 **** 0.06
26618 H 157.30040320107378 69.58708561811238 33.89531766521169 H 0.0 **** 0.06
26619 H 157.46887197356438 70.34595790331952 32.29345724615548 H 0.0 **** 0.06
26620 H 157.35036064745015 71.36128382349551 33.75157248180214 H 0.0 **** 0.06
26621 C 25.98746370224648 48.150983392042804 157.92575085388785 C 0.0 **** -0.24
26622 H 25.489964091011004 49.11982799475362 157.88161324091897 H 0.0 **** 0.06
26623 H 25.76883252384198 47.5892988815975 157.01695340249884 H 0.0 **** 0.06
26624 H 25.626169406773016 47.59669054020492 158.79172585920423 H 0.0 **** 0.06
26625 H 27.064060321384254 48.298622190591715 158.01247091530092 H 0.0 **** 0.06
26626 C 47.67316324595629 87.94386789072638 84.68260739669927 C 0.0 **** -0.24
26627 H 46.58686750879859 88.02021256215482 84.71896521457813 H 0.0 **** 0.06
26628 H 48.1053285926198 88.52711214336156 85.49535833812692 H 0.0 **** 0.06
26629 H 48.03253851555898 88.32861844655031 83.72856847751527 H 0.0 **** 0.06
26630 H 47.967918366847826 86.89952841083857 84.78753755657675 H 0.0 **** 0.06
26631 C 75.1616532655056 54.70128978576989 21.626755505074357 C 0.0 **** -0.24
26632 H 75.35898653211632 54.26669631816064 20.646985151656224 H 0.0 **** 0.06
26633 H 74.12572451336882 54.51127407144419 21.906168248670383 H 0.0 **** 0.06
26634 H 75.33635312654587 55.776154934355645 21.58890445172409 H 0.0 **** 0.06
26635 H 75.82666016474002 54.251294570037714 22.364129220492543 H 0.0 **** 0.06
26636 C 58.99080168210725 69.9906982223067 46.640473180798125 C 0.0 **** -0.24
26637 H 58.12603589958189 69.69035516230666 47.23336447535479 H 0.0 **** 0.06
26638 H 58.67395773192385 70.68357361428366 45.86165007762878 H 0.0 **** 0.06
26639 H 59.44044394287454 69.10916515007493 46.18232673233976 H 0.0 **** 0.06
26640 H 59.722369213771344 70.47739024238032 47.286424972101315 H 0.0 **** 0.06
26641 C 160.18572623870932 86.71013457619091 40.34256540558235 C 0.0 **** -0.24
26642 H 160.3784821442368 86.62292879460894 41.41124175042276 H 0.0 **** 0.06
26643 H 160.9052151516252 86.10267189029847 39.793094150478225 H 0.0 **** 0.06
26644 H 160.28389768479636 87.75211379900351 40.03931880855869 H 0.0 **** 0.06
26645 H 159.1752287689926 86.36239312436575 40.12526230637933 H 0.0 **** 0.06
26646 C 50.942036825494256 6.981181015087969 70.34869485197066 C 0.0 **** -0.24
26647 H 50.03877351425493 6.408655946113868 70.13559318271376 H 0.0 **** 0.06
26648 H 50.667070939843484 7.9913954373781735 70.6530539472916 H 0.0 **** 0.06
26649 H 51.56292652957782 7.027093797834283 69.45455290716427 H 0.0 **** 0.06
26650 H 51.49633722210069 6.498515672556067 71.1529529333531 H 0.0 **** 0.06
26651 C 95.21190685353338 18.40573174569588 142.9709182621202 C 0.0 **** -0.24
26652 H 94.39624057269094 17.859214746851734 143.4436608192655 H 0.0 **** 0.06
26653 H 95.81262618995595 17.717343361343374 142.37595306493097 H 0.0 **** 0.06
26654 H 95.83646262643185 18.862920177667647 143.73764288385996 H 0.0 **** 0.06
26655 H 94.80198516152223 19.182279931851177 142.32517684702051 H 0.0 **** 0.06
26656 C 85.21531779182459 130.80327739385896 105.35968211858409 C 0.0 **** -0.24
26657 H 86.2373122448084 130.54357828419816 105.63747627998228 H 0.0 **** 0.06
26658 H 85.03604977845698 131.856507874237 105.57755918169013 H 0.0 **** 0.06
26659 H 84.51743972071048 130.18938825163355 105.92934533848609 H 0.0 **** 0.06
26660 H 85.0714440971219 130.62352273466578 104.29454106627358 H 0.0 **** 0.06
26661 C 105.14046907365051 58.93812006651312 16.660479300203463 C 0.0 **** -0.24
26662 H 104.16714797716975 58.71918057711534 17.101284749551326 H 0.0 **** 0.06
26663 H 105.02432571071557 59.696510412712 15.885826683251878 H 0.0 **** 0.06
26664 H 105.5525754093652 58.030333550075724 16.221495451231306 H 0.0 **** 0.06
26665 H 105.81422153765254 59.30743897497344 17.433491596686565 H 0.0 **** 0.06
26666 C 46.775191804925726 146.943988501131 45.71986818832197 C 0.0 **** -0.24
26667 H 47.50860377798625 147.40514762695398 46.38163552376602 H 0.0 **** 0.06
26668 H 46.027406961755105 147.68449095807955 45.43380380149328 H 0.0 **** 0.06
26669 H 46.28850589777778 146.11692253385746 46.23719553376793 H 0.0 **** 0.06
26670 H 47.276994055174896 146.56958975197148 44.827477051312144 H 0.0 **** 0.06
26671 C 70.78063639973634 136.98524208351975 94.07866949626862 C 0.0 **** -0.24
26672 H 71.35156589029654 136.7612464780039 93.17843214148996 H 0.0 **** 0.06
26673 H 71.30520016330863 137.73998201401645 94.66407562280813 H 0.0 **** 0.06
26674 H 70.66871738767986 136.0776337932826 94.67211889846368 H 0.0 **** 0.06
26675 H 69.79570841767722 137.36032630875394 93.80004329658595 H 0.0 **** 0.06
26676 C 95.70380077959503 125.24170364329962 130.047863032053 C 0.0 **** -0.24
26677 H 95.34238680860867 126.26976006840835 130.02812022394798 H 0.0 **** 0.06
26678 H 95.13318303780069 124.66999687942871 130.780705216507 H 0.0 **** 0.06
26679 H 96.7589204025227 125.23229504821194 130.3198315823321 H 0.0 **** 0.06
26680 H 95.57920281026348 124.79454952199808 129.06115972178137 H 0.0 **** 0.06
26681 C 40.142642922387196 68.48027137575582 90.09111405577606 C 0.0 **** -0.24
26682 H 40.264515469198784 67.55458418979384 90.65212307803449 H 0.0 **** 0.06
26683 H 39.09603525758966 68.60178499609486 89.81196769421561 H 0.0 **** 0.06
26684 H 40.75649005112581 68.44372597516491 89.19142856833135 H 0.0 **** 0.06
26685 H 40.45436937973844 69.32321659493556 90.70952079180596 H 0.0 **** 0.06
26686 C 29.93928932609697 72.00866119044173 143.57466533627647 C 0.0 **** -0.24
26687 H 30.916231818298343 72.43371344643435 143.34500734215075 H 0.0 **** 0.06
26688 H 30.05221699728986 70.9526826300654 143.8206602238217 H 0.0 **** 0.06
26689 H 29.28563127756115 72.11172272328673 142.70869575099374 H 0.0 **** 0.06
26690 H 29.50410163972424 72.53556783504791 144.4241174750489 H 0.0 **** 0.06
26691 C 0.3745433697164344 62.7978605152781 148.1953078567187 C 0.0 **** -0.24
26692 H 1.2165632145221252 62.11645368215676 148.07363548894594 H 0.0 **** 0.06
26693 H -0.31847185766525854 62.39134568716841 148.93197769335583 H 0.0 **** 0.06
26694 H -0.13787685090755986 62.91528351195194 147.23934798453402 H 0.0 **** 0.06
26695 H 0.7385106364233138 63.76785333062497 148.53319778778499 H 0.0 **** 0.06
26696 C 68.0632995785198 43.6173798812447 17.46422065457955 C 0.0 **** -0.24
26697 H 68.8344916344043 44.32899355969376 17.760942197219038 H 0.0 **** 0.06
26698 H 68.35529346218512 42.61531750572706 17.77905463572779 H 0.0 **** 0.06
26699 H 67.94705303481678 43.63993549366957 16.38119719826932 H 0.0 **** 0.06
26700 H 67.11981520480812 43.88653065374824 17.937554480012864 H 0.0 **** 0.06
26701 C 156.32513642102714 122.96577142868031 76.05562569345754 C 0.0 **** -0.24
26702 H 156.17740387165372 123.04559230607782 77.1324704213077 H 0.0 **** 0.06
26703 H 156.34056128418737 123.96302987228907 75.616132211638 H 0.0 **** 0.06
26704 H 155.5105839524167 122.3881375202254 75.61978607876773 H 0.0 **** 0.06
26705 H 157.2724287503609 122.46550066710125 75.85517805672913 H 0.0 **** 0.06
26706 C 146.84315592147738 27.905129516495265 137.07980088219296 C 0.0 **** -0.24
26707 H 146.98998074941608 26.830496009168883 137.18104369308824 H 0.0 **** 0.06
26708 H 145.79094609737768 28.111400803549003 136.88546231484642 H 0.0 **** 0.06
26709 H 147.4462438925638 28.27832303767252 136.25165332749089 H 0.0 **** 0.06
26710 H 147.14683174832032 28.401864235733797 138.0018483310798 H 0.0 **** 0.06
26711 C 116.06179502649167 111.28522366127865 65.19621128332744 C 0.0 **** -0.24
26712 H 115.03774681315957 111.62907211899608 65.34130899698806 H 0.0 **** 0.06
26713 H 116.42275145182336 110.82137400616836 66.11472902573507 H 0.0 **** 0.06
26714 H 116.69753328012186 112.13238621083187 64.94256924135016 H 0.0 **** 0.06
26715 H 116.08865633267513 110.55568693169727 64.38589805369861 H 0.0 **** 0.06
26716 C 22.02183579715495 12.982330749185593 130.04841936712174 C 0.0 **** -0.24
26717 H 22.980979130136575 12.939674095208552 129.53345791406784 H 0.0 **** 0.06
26718 H 21.59549864870661 13.97995097220005 129.94114217971065 H 0.0 **** 0.06
26719 H 22.168620307026856 12.760135671976897 131.10593227289223 H 0.0 **** 0.06
26720 H 21.342967053465912 12.247540759345299 129.6143251501346 H 0.0 **** 0.06
26721 C 5.686756409100369 98.77988439540707 82.67392924941885 C 0.0 **** -0.24
26722 H 4.6584518701832 99.13526910918151 82.61051533037251 H 0.0 **** 0.06
26723 H 5.996160993235364 98.38767315554134 81.70463000113823 H 0.0 **** 0.06
26724 H 5.753718448235453 97.99170037013059 83.42329221767307 H 0.0 **** 0.06
26725 H 6.340281964254899 99.60610002943466 82.95626587684727 H 0.0 **** 0.06
26726 C 90.6973959327709 116.07811532513199 118.59662266594393 C 0.0 **** -0.24
26727 H 91.6844874103098 116.1958406004693 119.04503884110721 H 0.0 **** 0.06
26728 H 90.31122417921458 117.05657733964148 118.30773968757487 H 0.0 **** 0.06
26729 H 90.02239321314964 115.61929232219279 119.31972892672641 H 0.0 **** 0.06
26730 H 90.77248320661613 115.44146950092613 117.71467262623085 H 0.0 **** 0.06
26731 C 37.27881375237678 31.98155778904649 132.75255164614157 C 0.0 **** -0.24
26732 H 37.44149614521858 32.97089768212339 133.18024180644122 H 0.0 **** 0.06
26733 H 38.18672712098024 31.38772199598924 132.85487564747774 H 0.0 **** 0.06
26734 H 37.02633170558616 32.080335945787596 131.6961707544985 H 0.0 **** 0.06
26735 H 36.46043748703558 31.489547982723252 133.27725486252177 H 0.0 **** 0.06
26736 C 4.142086135453496 30.25537937720314 20.436357453449432 C 0.0 **** -0.24
26737 H 4.675067785876763 30.016069675817356 21.35699435660328 H 0.0 **** 0.06
26738 H 4.0858936415059475 29.365979614512653 19.808351612628968 H 0.0 **** 0.06
26739 H 4.673596799026569 31.043789812648406 19.90444841696572 H 0.0 **** 0.06
26740 H 3.13441750847295 30.59407492236214 20.678469288578356 H 0.0 **** 0.06
26741 C 45.139566713772254 62.94305043160034 0.3320601874742799 C 0.0 **** -0.24
26742 H 45.19020848147211 63.18935534835336 1.3922724919059917 H 0.0 **** 0.06
26743 H 44.20548026319044 62.41899668996568 0.12527505942459527 H 0.0 **** 0.06
26744 H 45.981919022588926 62.30303701989561 0.06731443837245266 H 0.0 **** 0.06
26745 H 45.17970510506436 63.85991759556583 -0.2560838179675109 H 0.0 **** 0.06
26746 C 137.47253896556913 50.23260416929037 23.65987375847766 C 0.0 **** -0.24
26747 H 137.78385774570765 49.881291141843434 22.6761351604886 H 0.0 **** 0.06
26748 H 137.2644114179734 51.301664863636134 23.614995977158003 H 0.0 **** 0.06
26749 H 138.268166333227 50.047076360511724 24.380620138419033 H 0.0 **** 0.06
26750 H 136.5725262563315 49.69983257002055 23.967224387388 H 0.0 **** 0.06
26751 C 66.46046673690326 66.53968553664168 23.858932856831814 C 0.0 **** -0.24
26752 H 66.03616053628511 66.39815097252472 22.86512550141714 H 0.0 **** 0.06
26753 H 65.70019063677184 66.94867427015782 24.52395789896491 H 0.0 **** 0.06
26754 H 67.30178650068075 67.23062938312665 23.799103657394596 H 0.0 **** 0.06
26755 H 66.80554630836131 65.58091784091681 24.245943774794966 H 0.0 **** 0.06
26756 C 35.28623717119018 62.34560831318943 134.39820834341066 C 0.0 **** -0.24
26757 H 34.984297218643235 63.15005997948299 133.72862818116727 H 0.0 **** 0.06
26758 H 36.36396128093945 62.39115063878279 134.55941175355957 H 0.0 **** 0.06
26759 H 35.02601335517602 61.38537295749467 133.9523423353723 H 0.0 **** 0.06
26760 H 34.77130126137769 62.45458913654403 135.3525966493517 H 0.0 **** 0.06
26761 C 142.51222699845425 36.46652838791965 86.34119598309215 C 0.0 **** -0.24
26762 H 142.5085453206283 37.5561026143796 86.30860287666154 H 0.0 **** 0.06
26763 H 142.37440861808477 36.13379159636662 87.37098151404932 H 0.0 **** 0.06
26764 H 143.46504148137223 36.09522662683986 85.96446477184621 H 0.0 **** 0.06
26765 H 141.7015207302852 36.081417654352606 85.72284420629627 H 0.0 **** 0.06
26766 C 88.19722790053837 1.7744280311065523 103.78530549826371 C 0.0 **** -0.24
26767 H 87.13833493104738 1.5717411675075326 103.94235497186062 H 0.0 **** 0.06
26768 H 88.35077624128701 2.8485859338386774 103.68400619210081 H 0.0 **** 0.06
26769 H 88.53334322526158 1.2715724154494055 102.8781579943462 H 0.0 **** 0.06
26770 H 88.76839494233923 1.4043614956993835 104.63707650242341 H 0.0 **** 0.06
26771 C 3.9844708794964703 20.31755492059372 107.58085919253028 C 0.0 **** -0.24
26772 H 3.935174593584989 21.08107166753379 108.3576486942606 H 0.0 **** 0.06
26773 H 4.158588787432556 19.34388899584812 108.03806752064008 H 0.0 **** 0.06
26774 H 4.8013821913634445 20.549149576485036 106.89689961748519 H 0.0 **** 0.06
26775 H 3.0444338989360986 20.298578816116162 107.03065904918992 H 0.0 **** 0.06
26776 C 8.847109435843848 6.380905175145813 126.26483435065131 C 0.0 **** -0.24
26777 H 9.781404961962785 6.1273386657982485 126.76687098836305 H 0.0 **** 0.06
26778 H 8.041806512368275 6.427247288750948 126.99839790358112 H 0.0 **** 0.06
26779 H 8.617138552838583 5.618157936941316 125.52103942366364 H 0.0 **** 0.06
26780 H 8.9489716401864 7.349063606838229 125.77399403615777 H 0.0 **** 0.06
26781 C 128.9090495850623 101.71221774152534 13.15149364561944 C 0.0 **** -0.24
26782 H 129.7997403322448 102.29892898656496 12.929386177920662 H 0.0 **** 0.06
26783 H 129.05051575870476 101.18195096752936 14.09375388282541 H 0.0 **** 0.06
26784 H 128.73879984888723 100.99264538962944 12.351326487161032 H 0.0 **** 0.06
26785 H 128.04831455023808 102.37539267296688 13.233658390845335 H 0.0 **** 0.06
26786 C 28.666718696085212 2.8104809547133414 8.986258553596684 C 0.0 **** -0.24
26787 H 27.689905784929607 3.02819788123918 8.553351220915964 H 0.0 **** 0.06
26788 H 28.875005459238082 1.7449130765970722 8.89335775912916 H 0.0 **** 0.06
26789 H 28.667789338867323 3.0907768214739804 10.039540060452886 H 0.0 **** 0.06
26790 H 29.431683680719345 3.378534290262394 8.457540467149094 H 0.0 **** 0.06
26791 C 23.010648457174632 72.06022806658837 98.26434254569904 C 0.0 **** -0.24
26792 H 23.083797456487673 71.22818543258845 97.56376125433576 H 0.0 **** 0.06
26793 H 22.082006957349932 71.97947207087067 98.8290524540248 H 0.0 **** 0.06
26794 H 23.02122255659124 73.00006276762565 97.71246776373209 H 0.0 **** 0.06
26795 H 23.857671975322354 72.03237298862616 98.95038637355867 H 0.0 **** 0.06
26796 C 155.9656712724477 9.875323457982034 108.88124364879317 C 0.0 **** -0.24
26797 H 155.46403327828614 10.141771917757296 107.9513590465848 H 0.0 **** 0.06
26798 H 157.04486467547844 9.943498007805857 108.74329912175074 H 0.0 **** 0.06
26799 H 155.6981738406791 8.855466978182449 109.15787109322153 H 0.0 **** 0.06
26800 H 155.65649784688458 10.560155166761973 109.67043130599933 H 0.0 **** 0.06
26801 C 94.82528923885505 119.38775213474929 35.11670330817775 C 0.0 **** -0.24
26802 H 95.00305334527016 120.38139604386984 35.52763584636435 H 0.0 **** 0.06
26803 H 95.52379238565592 119.20270104456966 34.299958955499235 H 0.0 **** 0.06
26804 H 93.80408112361286 119.32658245244315 34.7420994159956 H 0.0 **** 0.06
26805 H 94.97174256053829 118.64053212052792 35.89629968731549 H 0.0 **** 0.06
26806 C 126.17164852250994 63.98851886539785 57.391052720938205 C 0.0 **** -0.24
26807 H 125.69799854766296 64.5896067045249 56.61511009683909 H 0.0 **** 0.06
26808 H 127.25403739434205 64.09630223004126 57.32430005533422 H 0.0 **** 0.06
26809 H 125.9018960121054 62.940903195532485 57.25371416766134 H 0.0 **** 0.06
26810 H 125.83176159443167 64.32449412731273 58.370364895821524 H 0.0 **** 0.06
26811 C 44.999452420898834 148.71627799652836 109.52013787747322 C 0.0 **** -0.24
26812 H 45.758588280531356 149.17536707638598 110.15420715540108 H 0.0 **** 0.06
26813 H 45.480191722197446 148.05540331368852 108.79910304942811 H 0.0 **** 0.06
26814 H 44.45043171498844 149.49451712758824 108.99004639997864 H 0.0 **** 0.06
26815 H 44.310676643069755 148.1410918960774 110.13746492253554 H 0.0 **** 0.06
26816 C 162.18904743512434 112.91566938417574 17.952588313948468 C 0.0 **** -0.24
26817 H 161.3747191129191 113.56556194762956 17.632377612649748 H 0.0 **** 0.06
26818 H 162.80973502325375 113.44201572917012 18.6781669235761 H 0.0 **** 0.06
26819 H 162.7947769748886 112.63990770175775 17.088784455722134 H 0.0 **** 0.06
26820 H 161.7783438613199 112.01623296642757 18.409610756984023 H 0.0 **** 0.06
26821 C 144.61791827269528 84.84762133590874 160.56691428390474 C 0.0 **** -0.24
26822 H 145.1607791710246 85.61116986886242 160.00984648140314 H 0.0 **** 0.06
26823 H 143.5455126573058 85.00990148091029 160.45523962521418 H 0.0 **** 0.06
26824 H 144.88650185672566 84.90854173341364 161.62226184034094 H 0.0 **** 0.06
26825 H 144.87880132950423 83.86295503851176 160.18159609220143 H 0.0 **** 0.06
26826 C 114.97037822687136 15.191053932866964 66.15775841826127 C 0.0 **** -0.24
26827 H 115.81784876190815 14.510919244214534 66.23598448443795 H 0.0 **** 0.06
26828 H 114.89745618604343 15.564853185867804 65.13587614222399 H 0.0 **** 0.06
26829 H 115.11228998912131 16.02763006976977 66.84224237521187 H 0.0 **** 0.06
26830 H 114.05391797041264 14.660813231615748 66.41693067117114 H 0.0 **** 0.06
26831 C 74.60293644427647 28.412687760029534 111.62555011053882 C 0.0 **** -0.24
26832 H 74.55585070521293 27.809198311047844 110.71819388356255 H 0.0 **** 0.06
26833 H 73.92104124704305 28.002710594308375 112.36993071963366 H 0.0 **** 0.06
26834 H 74.31626140114653 29.438765417603605 111.39452862921394 H 0.0 **** 0.06
26835 H 75.62043725293232 28.39876981463931 112.01733612116197 H 0.0 **** 0.06
26836 C 37.1430546451963 39.02510982981562 79.0991760310144 C 0.0 **** -0.24
26837 H 37.49511404413255 39.84133904816906 79.72986921635658 H 0.0 **** 0.06
26838 H 37.77126971961499 38.14800449973461 79.25571652836584 H 0.0 **** 0.06
26839 H 37.194859103950236 39.32692726097173 78.05266973964092 H 0.0 **** 0.06
26840 H 36.111902439142895 38.78457130497958 79.35745919758142 H 0.0 **** 0.06
26841 C 100.99945626767911 46.139835236412466 104.25105293486021 C 0.0 **** -0.24
26842 H 101.88672685693138 45.908644774104175 103.66191312302729 H 0.0 **** 0.06
26843 H 100.8963511474204 47.22151774035058 104.340792387893 H 0.0 **** 0.06
26844 H 101.0970403566514 45.70030071125507 105.24369617451075 H 0.0 **** 0.06
26845 H 100.11865445102896 45.72995206974872 103.75683658114099 H 0.0 **** 0.06
26846 C 139.19899213708396 162.6327770651716 112.14416356301885 C 0.0 **** -0.24
26847 H 139.19410019728937 161.71970983524307 112.73984231196391 H 0.0 **** 0.06
26848 H 139.67864173696307 163.43224723106312 112.70850881108217 H 0.0 **** 0.06
26849 H 138.17439015805175 162.91779346465603 111.9072621821903 H 0.0 **** 0.06
26850 H 139.750795891908 162.45884030772277 111.21936059275396 H 0.0 **** 0.06
26851 C 159.87888486748045 124.25571595786181 32.25707046056772 C 0.0 **** -0.24
26852 H 159.90964074180397 124.03969027962239 31.1892053783517 H 0.0 **** 0.06
26853 H 159.50915389600607 125.26885324068616 32.41213394223938 H 0.0 **** 0.06
26854 H 160.8821094733023 124.1656513760621 32.673796535106206 H 0.0 **** 0.06
26855 H 159.21556007203878 123.54614705542463 32.751809835352134 H 0.0 **** 0.06
26856 C 0.21276695548644398 45.4957594908214 138.88555732565658 C 0.0 **** -0.24
26857 H 1.1666324534768933 45.97011230532479 138.65300861984002 H 0.0 **** 0.06
26858 H -0.2118840787822478 45.95580949764769 139.77834642434226 H 0.0 **** 0.06
26859 H 0.3693141072940307 44.43238050523729 139.06386870286744 H 0.0 **** 0.06
26860 H -0.4716334642920401 45.6270279870688 138.04795033153016 H 0.0 **** 0.06
26861 C 36.786713889230654 42.95147029956645 20.174636757193014 C 0.0 **** -0.24
26862 H 36.064260755863685 42.75369769073309 19.382630237035357 H 0.0 **** 0.06
26863 H 36.46370112292165 42.459195459118604 21.091852700025186 H 0.0 **** 0.06
26864 H 36.85660328600336 44.02602764159708 20.342823674189844 H 0.0 **** 0.06
26865 H 37.76339542981147 42.56611357910563 19.879490581683854 H 0.0 **** 0.06
26866 C 74.36411176990332 44.590052071072535 148.4648291537451 C 0.0 **** -0.24
26867 H 74.78526873822648 45.59604564960517 148.4656184353245 H 0.0 **** 0.06
26868 H 73.46805285494302 44.571787665388 149.0848893742692 H 0.0 **** 0.06
26869 H 75.09782235387152 43.89006697917057 148.86426312653938 H 0.0 **** 0.06
26870 H 74.10741407520261 44.30484659124272 147.44486152305626 H 0.0 **** 0.06
26871 C 133.43317883654882 25.72040856971398 23.099176632463937 C 0.0 **** -0.24
26872 H 132.34804680848688 25.731939554424287 23.2059586650513 H 0.0 **** 0.06
26873 H 133.818031827381 24.75332060724918 23.423790131269065 H 0.0 **** 0.06
26874 H 133.8667079644993 26.509221350906955 23.712796796018274 H 0.0 **** 0.06
26875 H 133.696611226281 25.88552573361528 22.054750217841146 H 0.0 **** 0.06
26876 C 10.798244287870851 119.37122825136643 37.623923345252194 C 0.0 **** -0.24
26877 H 11.162434626460062 118.34732480579939 37.70903498963605 H 0.0 **** 0.06
26878 H 10.258828022498761 119.48711174738042 36.6833208814096 H 0.0 **** 0.06
26879 H 11.642343420673548 120.06006428855815 37.645658218660174 H 0.0 **** 0.06
26880 H 10.129316945830766 119.5896512600095 38.455830449627086 H 0.0 **** 0.06
26881 C 92.72789833145043 22.26709859218775 149.60926595740065 C 0.0 **** -0.24
26882 H 93.66755970351888 22.484619783947977 149.0995042932267 H 0.0 **** 0.06
26883 H 91.98650072477288 21.93845872140858 148.87989202922992 H 0.0 **** 0.06
26884 H 92.37108879408372 23.16738174133694 150.10996354471766 H 0.0 **** 0.06
26885 H 92.88788294043503 21.479958819394298 150.34602151766651 H 0.0 **** 0.06
26886 C 25.827456069796618 159.13978452689278 67.6736791917686 C 0.0 **** -0.24
26887 H 25.649313395172342 159.44519314702416 68.70480800145658 H 0.0 **** 0.06
26888 H 26.82207930393473 159.4638674243961 67.36547830030285 H 0.0 **** 0.06
26889 H 25.07939384727287 159.596279372468 67.02553397475414 H 0.0 **** 0.06
26890 H 25.760124290330076 158.05469903349984 67.59880768357054 H 0.0 **** 0.06
26891 C 16.450106315179227 39.48531698992571 53.01182236850249 C 0.0 **** -0.24
26892 H 16.66123426657424 38.41916886498758 52.93226104696804 H 0.0 **** 0.06
26893 H 17.125527829698342 39.93620008984874 53.73904934220538 H 0.0 **** 0.06
26894 H 15.4190608066408 39.627856737638965 53.33444043373788 H 0.0 **** 0.06
26895 H 16.594475873880185 39.95683368067601 52.03941179862477 H 0.0 **** 0.06
26896 C 34.37160290656709 99.4880616339374 152.77459019821887 C 0.0 **** -0.24
26897 H 34.599957888229625 100.20592159990363 153.56214141278167 H 0.0 **** 0.06
26898 H 35.10267388452377 99.58402221103336 151.97221582805346 H 0.0 **** 0.06
26899 H 33.37312237271931 99.683946275702 152.38261735100485 H 0.0 **** 0.06
26900 H 34.40965300196888 98.47763371547495 153.18207084600795 H 0.0 **** 0.06
26901 C 92.19094369539113 152.39995895037634 29.30083823293203 C 0.0 **** -0.24
26902 H 92.28698490681089 151.37223609994152 28.949828687878018 H 0.0 **** 0.06
26903 H 92.77429146681558 152.52833290708617 30.21318816171516 H 0.0 **** 0.06
26904 H 91.14279460578638 152.61674527521325 29.505579567350807 H 0.0 **** 0.06
26905 H 92.56141230624752 153.08107894952923 28.534743976253033 H 0.0 **** 0.06
26906 C 9.905917946720535 50.52587521989609 97.73364507242786 C 0.0 **** -0.24
26907 H 9.545100155137277 49.5149403227791 97.92254187942183 H 0.0 **** 0.06
26908 H 9.158389377650565 51.07738621012555 97.16242396214213 H 0.0 **** 0.06
26909 H 10.835848480373613 50.47948133419338 97.16608829616979 H 0.0 **** 0.06
26910 H 10.084672952252987 51.031013215235504 98.68287587219123 H 0.0 **** 0.06
26911 C 40.154631039575975 18.8536162102738 58.7498472533147 C 0.0 **** -0.24
26912 H 39.95171401330572 17.796744645810918 58.9215913038835 H 0.0 **** 0.06
26913 H 41.08283669831292 18.95840941022277 58.18754972080758 H 0.0 **** 0.06
26914 H 40.2493867074046 19.365577536642547 59.70766186553627 H 0.0 **** 0.06
26915 H 39.333749814278576 19.293191928658416 58.182505131441545 H 0.0 **** 0.06
26916 C 121.0410730770744 25.64173415161264 15.85024705489235 C 0.0 **** -0.24
26917 H 121.67383343094951 25.49291263980794 14.974611637971208 H 0.0 **** 0.06
26918 H 120.91625111729877 24.69302145745752 16.3728440100885 H 0.0 **** 0.06
26919 H 120.06671846936786 26.01367160478725 15.53412766099035 H 0.0 **** 0.06
26920 H 121.50747231623694 26.36588191685547 16.516778045735578 H 0.0 **** 0.06
26921 C 73.4280347065977 26.977159163638447 151.82468218984852 C 0.0 **** -0.24
26922 H 73.11629427186503 26.793783102445545 150.79741108791836 H 0.0 **** 0.06
26923 H 74.01337696748325 26.130678915578102 152.18360624798797 H 0.0 **** 0.06
26924 H 72.54759362163685 27.103760642313958 152.4547460119438 H 0.0 **** 0.06
26925 H 74.03541942838164 27.881406636221442 151.86381228364218 H 0.0 **** 0.06
26926 C 18.630121351878074 148.96911169606227 34.35594805075354 C 0.0 **** -0.24
26927 H 18.127498775744527 149.9238231833174 34.50651477311658 H 0.0 **** 0.06
26928 H 19.481650918118703 148.8955474561016 35.033220218951215 H 0.0 **** 0.06
26929 H 18.978889309024453 148.9016700065556 33.32522286867578 H 0.0 **** 0.06
26930 H 17.93345426628383 148.15561519058488 34.55786451116791 H 0.0 **** 0.06
26931 C 151.1192209174916 92.81479273193018 86.84741437622611 C 0.0 **** -0.24
26932 H 150.3498656107579 92.78612749963473 87.6186663168841 H 0.0 **** 0.06
26933 H 150.98853896542286 91.96762866188472 86.17296039815561 H 0.0 **** 0.06
26934 H 152.10355129816156 92.76069659061233 87.31249734310292 H 0.0 **** 0.06
26935 H 151.03483446282516 93.744778336261 86.2838049328848 H 0.0 **** 0.06
26936 C 89.7548180791854 104.6461084501857 64.18510008513812 C 0.0 **** -0.24
26937 H 90.01032770105394 105.66364181144638 64.48160904299164 H 0.0 **** 0.06
26938 H 88.95449805696767 104.67362990571985 63.44546146090852 H 0.0 **** 0.06
26939 H 89.42221764434844 104.08584545267428 65.06001450228644 H 0.0 **** 0.06
26940 H 90.63137543369587 104.16191497413172 63.755532029472704 H 0.0 **** 0.06
26941 C 10.533809696953497 161.70842185184242 93.21301031573871 C 0.0 **** -0.24
26942 H 11.181357559158045 161.93741698158888 92.3668207132801 H 0.0 **** 0.06
26943 H 9.876795919756951 160.8777635709793 92.95264592956401 H 0.0 **** 0.06
26944 H 9.932297644231646 162.58387242990693 93.45749219375168 H 0.0 **** 0.06
26945 H 11.14374838779419 161.43359638484654 94.07416456635865 H 0.0 **** 0.06
26946 C 90.60400679391184 117.92836273210344 57.1409197921227 C 0.0 **** -0.24
26947 H 89.7491363289225 118.58623972165938 56.985706395868675 H 0.0 **** 0.06
26948 H 90.75662817705265 117.77708576247022 58.209653554971524 H 0.0 **** 0.06
26949 H 91.49492319158799 118.38229990947116 56.70686349382693 H 0.0 **** 0.06
26950 H 90.41467858293422 116.96758068948802 56.660746288451335 H 0.0 **** 0.06
26951 C 89.08634331226082 99.1193914527517 133.6973887866004 C 0.0 **** -0.24
26952 H 89.37117269793879 98.07006284595974 133.76761359125794 H 0.0 **** 0.06
26953 H 89.92418641293577 99.74431209004973 134.00599530120135 H 0.0 **** 0.06
26954 H 88.23190392015607 99.30844162941938 134.3468494835254 H 0.0 **** 0.06
26955 H 88.81763695326714 99.35441996649871 132.66693627356008 H 0.0 **** 0.06
26956 C 139.12538864570377 101.98897171426907 137.45880637047372 C 0.0 **** -0.24
26957 H 139.75649747541578 101.10069377342938 137.45372912302673 H 0.0 **** 0.06
26958 H 139.46076883595592 102.67787444435521 136.68284693538817 H 0.0 **** 0.06
26959 H 139.1930631978502 102.47779430782285 138.43131062179359 H 0.0 **** 0.06
26960 H 138.09103029984828 101.70182540693813 137.26815568353481 H 0.0 **** 0.06
26961 C 56.69990628303185 75.13458036196167 53.78181843119661 C 0.0 **** -0.24
26962 H 56.4296147301427 74.17861400122344 53.33459632271797 H 0.0 **** 0.06
26963 H 57.48835492207343 75.60207343132393 53.191065638206425 H 0.0 **** 0.06
26964 H 57.05598893336759 74.97232116458784 54.799570355904734 H 0.0 **** 0.06
26965 H 55.82699917074581 75.78710751631819 53.8021000509092 H 0.0 **** 0.06
26966 C 138.76398909141636 63.108633918103706 70.34604437845002 C 0.0 **** -0.24
26967 H 138.2533141686766 63.73284876770347 69.61260603158036 H 0.0 **** 0.06
26968 H 138.02730229536803 62.54835496235977 70.92184461647338 H 0.0 **** 0.06
26969 H 139.34606556036974 63.74115109714252 71.01756050663289 H 0.0 **** 0.06
26970 H 139.42966777044387 62.41531568784674 69.83203116699906 H 0.0 **** 0.06
26971 C 51.70541104181838 99.89037431359526 99.72927841186242 C 0.0 **** -0.24
26972 H 52.51793436489994 100.49395370503967 99.3237027093229 H 0.0 **** 0.06
26973 H 50.775573400437494 100.45972386639141 99.6880476663699 H 0.0 **** 0.06
26974 H 51.9271677197455 99.63104079294257 100.76352688120525 H 0.0 **** 0.06
26975 H 51.60053338674493 98.97978830869144 99.13965594573955 H 0.0 **** 0.06
26976 C 57.19925939625543 3.8006073925201918 146.5956993588843 C 0.0 **** -0.24
26977 H 56.26597716436817 3.949372338280739 146.05222338438475 H 0.0 **** 0.06
26978 H 57.53286615284394 4.751171983287918 147.01242871896335 H 0.0 **** 0.06
26979 H 57.95816033216802 3.4155388456545097 145.91418526752147 H 0.0 **** 0.06
26980 H 57.038564543402444 3.08538181955106 147.4022540029533 H 0.0 **** 0.06
26981 C 153.16683529575693 114.64344234271738 45.60773580140403 C 0.0 **** -0.24
26982 H 153.93632990132198 114.29871496184484 44.91797504625498 H 0.0 **** 0.06
26983 H 153.59214354532537 115.38659898871455 46.28363520650109 H 0.0 **** 0.06
26984 H 152.79116979479522 113.79936837921554 46.1850211671088 H 0.0 **** 0.06
26985 H 152.3480508048615 115.09129129500371 45.04444179772156 H 0.0 **** 0.06
26986 C 47.27218109396128 156.81595930510252 48.45927984728367 C 0.0 **** -0.24
26987 H 46.57345971434654 156.49777263238363 47.68474607219915 H 0.0 **** 0.06
26988 H 47.3532756819576 157.9029006443527 48.45061679629437 H 0.0 **** 0.06
26989 H 48.25121023434795 156.37622277649515 48.26733036966219 H 0.0 **** 0.06
26990 H 46.9101526010827 156.4857518256093 49.43263909723467 H 0.0 **** 0.06
26991 C 150.76819682294075 88.1758342837881 158.4460269375334 C 0.0 **** -0.24
26992 H 150.37413630588676 87.16142791035486 158.38731694058313 H 0.0 **** 0.06
26993 H 150.73867277850078 88.63465770641216 157.457708033813 H 0.0 **** 0.06
26994 H 151.79679308230195 88.14636438653628 158.803006015758 H 0.0 **** 0.06
26995 H 150.16030849079573 88.76162629548452 159.13716253811222 H 0.0 **** 0.06
26996 C 54.27114297240712 105.65995832609005 33.56419742383804 C 0.0 **** -0.24
26997 H 53.243652634587804 105.86677778180294 33.26523560705249 H 0.0 **** 0.06
26998 H 54.70237845565083 106.55123796771124 34.02172279114967 H 0.0 **** 0.06
26999 H 54.85506597833978 105.38299160284194 32.68748871581823 H 0.0 **** 0.06
27000 H 54.282158511957846 104.84087737780203 34.28258581712299 H 0.0 **** 0.06
27001 C 136.89238610944759 125.81963718246439 0.2739225340899196 C 0.0 **** -0.24
27002 H 137.76330475009172 126.14265468435343 -0.2973412432882121 H 0.0 **** 0.06
27003 H 136.5701923906785 124.84020374934548 -0.07893324183467954 H 0.0 **** 0.06
27004 H 136.08388822147197 126.53806816226896 0.14243140087566175 H 0.0 **** 0.06
27005 H 137.15530159974875 125.75745274982134 1.3305802080313 H 0.0 **** 0.06
27006 C 151.88728262088983 114.9024660322309 54.7938684558942 C 0.0 **** -0.24
27007 H 152.69090249454055 114.72580886878828 54.07798421702671 H 0.0 **** 0.06
27008 H 151.03355087584038 115.3431274018603 54.27956066464378 H 0.0 **** 0.06
27009 H 152.2367589879452 115.58449035342267 55.569082590490325 H 0.0 **** 0.06
27010 H 151.5914403515365 113.95705118791389 55.24774283997999 H 0.0 **** 0.06
27011 C 10.353549334706315 53.69955850967507 136.4860709167861 C 0.0 **** -0.24
27012 H 11.382490021244365 53.351767858415684 136.3935745042342 H 0.0 **** 0.06
27013 H 10.158482810284454 53.983053398120376 137.52102096322943 H 0.0 **** 0.06
27014 H 9.67268972063465 52.900141563478726 136.1937840936779 H 0.0 **** 0.06
27015 H 10.202720825031065 54.561812178847674 135.8376627250065 H 0.0 **** 0.06
27016 C 36.945539603862656 45.47688064368319 111.55337361373009 C 0.0 **** -0.24
27017 H 36.62578604774417 45.78229508255154 112.55017879586754 H 0.0 **** 0.06
27018 H 36.28277809028798 45.91676669823637 110.80877891657917 H 0.0 **** 0.06
27019 H 36.90644924667153 44.39006836979256 111.47769078410124 H 0.0 **** 0.06
27020 H 37.96605957874911 45.817368319688484 111.38012824360507 H 0.0 **** 0.06
27021 C 127.16159310401929 136.8792644471709 118.35958131171293 C 0.0 **** -0.24
27022 H 126.08293585652694 137.03325973616992 118.41389440026643 H 0.0 **** 0.06
27023 H 127.5551553706814 136.71502160745325 119.36327096629151 H 0.0 **** 0.06
27024 H 127.631709885064 137.75973115225256 117.92326330367129 H 0.0 **** 0.06
27025 H 127.37204920198243 136.0094603547535 117.73851216777823 H 0.0 **** 0.06
27026 C 125.81411437556568 144.5712613371019 82.68688298069236 C 0.0 **** -0.24
27027 H 126.24792283180045 143.57180615292054 82.72864943175328 H 0.0 **** 0.06
27028 H 126.17180863910403 145.1573702021305 83.53382636049243 H 0.0 **** 0.06
27029 H 124.72760418677257 144.49642107898453 82.7285410343506 H 0.0 **** 0.06
27030 H 126.11032163568655 145.0574179070898 81.75717823479293 H 0.0 **** 0.06
27031 C 66.23793354620472 141.2608166573854 97.68887192170914 C 0.0 **** -0.24
27032 H 65.88281755988288 140.54993629289677 98.4357719392751 H 0.0 **** 0.06
27033 H 65.99747474904217 140.88921047765515 96.69227907588765 H 0.0 **** 0.06
27034 H 67.31646287320524 141.3783547088482 97.78323869598793 H 0.0 **** 0.06
27035 H 65.75127162380042 142.22370466691794 97.844299434579 H 0.0 **** 0.06
27036 C 123.54888586723729 148.31817179571595 130.1781459473799 C 0.0 **** -0.24
27037 H 123.2085137961069 147.36514645570364 130.58186909538813 H 0.0 **** 0.06
27038 H 123.9492639427045 148.16586620904417 129.17555167313498 H 0.0 **** 0.06
27039 H 124.32526093256851 148.72890791559627 130.822033664181 H 0.0 **** 0.06
27040 H 122.70943289145018 149.01318668994986 130.13250708585554 H 0.0 **** 0.06
27041 C 20.97721012111419 65.93243538592986 113.8151861986947 C 0.0 **** -0.24
27042 H 20.26269845548355 66.4030426588725 114.49103732910751 H 0.0 **** 0.06
27043 H 21.31568324549263 66.66124687409956 113.07904042456391 H 0.0 **** 0.06
27044 H 20.49855271329814 65.0956847593576 113.30613871605243 H 0.0 **** 0.06
27045 H 21.831682560696777 65.5683244611588 114.38649519590456 H 0.0 **** 0.06
27046 C 55.917753615277704 29.104470387352762 9.338367899461844 C 0.0 **** -0.24
27047 H 55.352829633585316 29.573572549724787 8.532462241516328 H 0.0 **** 0.06
27048 H 56.71486539586384 29.77481091345018 9.660545269088345 H 0.0 **** 0.06
27049 H 56.349969467482325 28.169451908446234 8.982546674212387 H 0.0 **** 0.06
27050 H 55.2517732314508 28.901529480622003 10.177357165307228 H 0.0 **** 0.06
27051 C 2.6335897519944638 29.90014648776753 7.683045899168285 C 0.0 **** -0.24
27052 H 2.633347658605885 30.063104489289714 8.760678248038928 H 0.0 **** 0.06
27053 H 3.6484514966531947 29.681201413716394 7.349500428774164 H 0.0 **** 0.06
27054 H 2.2713397906123873 30.7963816798042 7.179948208977315 H 0.0 **** 0.06
27055 H 1.9825884694028275 29.059994071912456 7.442400749604573 H 0.0 **** 0.06
27056 C 81.4383344160587 105.80901974639352 50.77868042899317 C 0.0 **** -0.24
27057 H 80.36749943911178 106.00408400357523 50.82567201044027 H 0.0 **** 0.06
27058 H 81.63814253987243 104.79361542718405 51.12135176842672 H 0.0 **** 0.06
27059 H 81.96551754933864 106.51795793348202 51.41695814370436 H 0.0 **** 0.06
27060 H 81.7833037926658 105.9206286947761 49.749909084172714 H 0.0 **** 0.06
27061 C 110.45260638897983 44.517458430124194 14.093433712766313 C 0.0 **** -0.24
27062 H 110.8794022843 45.165314310336626 13.328142355674402 H 0.0 **** 0.06
27063 H 109.4789880603403 44.15712125909208 13.76245137825586 H 0.0 **** 0.06
27064 H 110.33713471233091 45.07739968807479 15.021451996504197 H 0.0 **** 0.06
27065 H 111.1164935607321 43.668439540374294 14.261510052712026 H 0.0 **** 0.06
27066 C 17.286418644283117 2.618653481926202 105.78532861367714 C 0.0 **** -0.24
27067 H 17.648881668717507 3.47607252634257 105.21754430695847 H 0.0 **** 0.06
27068 H 16.368581608153477 2.2453196924944336 105.3317099448484 H 0.0 **** 0.06
27069 H 17.087623122596085 2.9219921792283543 106.81253783708317 H 0.0 **** 0.06
27070 H 18.042454262802295 1.8332136411477649 105.77762991773108 H 0.0 **** 0.06
27071 C 148.06000698543494 143.74103435476718 79.7624934825504 C 0.0 **** -0.24
27072 H 147.83676506129092 142.8429315695799 80.33926667571228 H 0.0 **** 0.06
27073 H 147.3566218070797 144.529557075334 80.0325640415023 H 0.0 **** 0.06
27074 H 147.96865551935826 143.52100693933568 78.698687714469 H 0.0 **** 0.06
27075 H 149.07669061354676 144.06952142454696 79.97919492116701 H 0.0 **** 0.06
27076 C 125.80406701951506 152.19580876052018 46.028598925283745 C 0.0 **** -0.24
27077 H 126.39986955090592 152.74594081519567 45.30078651894752 H 0.0 **** 0.06
27078 H 126.1943746087345 151.18278861249686 46.1255268193907 H 0.0 **** 0.06
27079 H 124.76810187126716 152.15594747239496 45.693677872628996 H 0.0 **** 0.06
27080 H 125.85521849166241 152.70001100456835 46.99394782542083 H 0.0 **** 0.06
27081 C 7.236119374322982 128.71106057888977 79.65478726091814 C 0.0 **** -0.24
27082 H 6.301588660485038 129.26422337161617 79.57035340420182 H 0.0 **** 0.06
27083 H 7.155080323285688 127.77400262752474 79.10290959562548 H 0.0 **** 0.06
27084 H 7.4379780548061945 128.49840449042142 80.70474932010922 H 0.0 **** 0.06
27085 H 8.050544141761293 129.30668437301875 79.24193079416327 H 0.0 **** 0.06
27086 C 44.223320688857626 15.47451602116493 163.0133270435352 C 0.0 **** -0.24
27087 H 45.14706363467323 14.96537444127 163.28943516998987 H 0.0 **** 0.06
27088 H 43.97315873369885 16.212002612926426 163.77597203227458 H 0.0 **** 0.06
27089 H 43.4161665782472 14.746341238873043 162.93379979777072 H 0.0 **** 0.06
27090 H 44.35808730356652 15.97418604217765 162.05335947959003 H 0.0 **** 0.06
27091 C 8.369684415694849 51.817616478217786 140.49533494059418 C 0.0 **** -0.24
27092 H 9.180389199514593 51.156479752711164 140.19240461941874 H 0.0 **** 0.06
27093 H 8.631528844385855 52.847926177329185 140.2534934849966 H 0.0 **** 0.06
27094 H 8.20758594549784 51.725982026784635 141.56923487266315 H 0.0 **** 0.06
27095 H 7.45790133649092 51.540376678854045 139.96583840579967 H 0.0 **** 0.06
27096 C 154.47097856407044 57.478183536231086 121.84101684606642 C 0.0 **** -0.24
27097 H 153.4443695402335 57.653291618013384 121.51752038227838 H 0.0 **** 0.06
27098 H 154.5256394120233 56.53136687586198 122.37843964462164 H 0.0 **** 0.06
27099 H 154.7873226311928 58.28845698442106 122.49792568873804 H 0.0 **** 0.06
27100 H 155.1245430384577 57.44044460059695 120.96978433300444 H 0.0 **** 0.06
27101 C 72.54610607980068 47.165624714217586 70.64761384867103 C 0.0 **** -0.24
27102 H 72.27800681193203 47.73209699974734 71.53935023570895 H 0.0 **** 0.06
27103 H 73.10239641992881 46.27389449846345 70.93633539734878 H 0.0 **** 0.06
27104 H 73.16323694454054 47.784880270569744 69.99612791058104 H 0.0 **** 0.06
27105 H 71.63930641855222 46.873358023313074 70.11773610528826 H 0.0 **** 0.06
27106 C 133.38267335094537 45.85683615740538 126.14211890597508 C 0.0 **** -0.24
27107 H 132.3892318800996 46.21273574723671 126.41663558570909 H 0.0 **** 0.06
27108 H 133.3059143189068 44.852652392541756 125.7239659384172 H 0.0 **** 0.06
27109 H 134.0179241629237 45.83471129626287 127.02806065189657 H 0.0 **** 0.06
27110 H 133.81693010283772 46.5281637243981 125.40063575987438 H 0.0 **** 0.06
27111 C 133.7988128416829 63.73047693481821 145.1989244161682 C 0.0 **** -0.24
27112 H 134.24457550777885 63.39704701818705 144.26246194811029 H 0.0 **** 0.06
27113 H 132.7128683494821 63.6777548464983 145.1234142397181 H 0.0 **** 0.06
27114 H 134.10022264939585 64.759063379433 145.39874415920247 H 0.0 **** 0.06
27115 H 134.13849881252006 63.088431784245586 146.0120838986332 H 0.0 **** 0.06
27116 C 56.289359196404874 106.44885393070751 67.25669681373097 C 0.0 **** -0.24
27117 H 56.99473999186466 106.92925622421802 67.93539884874582 H 0.0 **** 0.06
27118 H 56.786918893582424 106.22968244618062 66.3117570926816 H 0.0 **** 0.06
27119 H 55.44637765652884 107.1163630380313 67.07810910334126 H 0.0 **** 0.06
27120 H 55.93008942467412 105.52118488279427 67.70213729612448 H 0.0 **** 0.06
27121 C 121.12018953907759 150.25770876863822 108.32686773186958 C 0.0 **** -0.24
27122 H 120.11989584507438 150.69121506734058 108.31816799746801 H 0.0 **** 0.06
27123 H 121.35633736636225 149.86902745440617 107.33522517597046 H 0.0 **** 0.06
27124 H 121.15861840160849 149.4472581823367 109.05382913778314 H 0.0 **** 0.06
27125 H 121.84622935578119 151.02477654790493 108.59890101206994 H 0.0 **** 0.06
27126 C 102.30275427138997 158.73387928097623 26.1974116862814 C 0.0 **** -0.24
27127 H 102.00059298335509 158.24708204306347 27.12466885685383 H 0.0 **** 0.06
27128 H 101.52713435290309 159.43450421865506 25.887320876646328 H 0.0 **** 0.06
27129 H 102.4438222053011 157.9812602346438 25.420726866374686 H 0.0 **** 0.06
27130 H 103.23685565051414 159.27201212641404 26.355609289354348 H 0.0 **** 0.06
27131 C 138.11353257154326 23.21033694756312 120.38979834277686 C 0.0 **** -0.24
27132 H 137.70199332374455 24.220028230062866 120.37731457435345 H 0.0 **** 0.06
27133 H 137.61900332240128 22.626768581532417 121.16634559881822 H 0.0 **** 0.06
27134 H 139.18271707827137 23.256503158517205 120.59415830873698 H 0.0 **** 0.06
27135 H 137.9483173200374 22.739573139552874 119.42024935539871 H 0.0 **** 0.06
27136 C 80.83990133777411 135.05883013181995 80.05005471938892 C 0.0 **** -0.24
27137 H 81.46842355313592 134.66708046075945 79.25074635912216 H 0.0 **** 0.06
27138 H 81.09588194731867 136.10251395143814 80.23476772060837 H 0.0 **** 0.06
27139 H 81.00229670912967 134.4784452371319 80.95792417778028 H 0.0 **** 0.06
27140 H 79.79250437955068 134.98731122115157 79.7559143949149 H 0.0 **** 0.06
27141 C 140.18703840168638 24.68168781285425 20.088002632032953 C 0.0 **** -0.24
27142 H 139.50460934070077 24.71121735545256 19.239061872034654 H 0.0 **** 0.06
27143 H 140.81145529032904 25.57529410316937 20.082882706403808 H 0.0 **** 0.06
27144 H 140.8191668345563 23.795844268543277 20.015203177239073 H 0.0 **** 0.06
27145 H 139.61290458391022 24.643203761499166 21.014101553927844 H 0.0 **** 0.06
27146 C 15.896782036265364 30.84091570163124 69.89204602039443 C 0.0 **** -0.24
27147 H 16.411167617858553 31.481895485158937 69.17531923986158 H 0.0 **** 0.06
27148 H 15.174817254643592 31.432564262810658 70.45477569380914 H 0.0 **** 0.06
27149 H 16.624505640430776 30.406540399181715 70.57732063783409 H 0.0 **** 0.06
27150 H 15.377984412338776 30.044273562856112 69.35862574441701 H 0.0 **** 0.06
27151 C 105.254281089546 116.7626898307796 97.19759759118611 C 0.0 **** -0.24
27152 H 106.27136594700647 116.40098374818467 97.04291406854207 H 0.0 **** 0.06
27153 H 104.6003080593791 116.34535695424316 96.43155423796377 H 0.0 **** 0.06
27154 H 105.2427612194164 117.85085949997833 97.13394285498123 H 0.0 **** 0.06
27155 H 104.90517164847677 116.4528383178961 98.18312715734191 H 0.0 **** 0.06
27156 C 41.18190686145209 22.396116981491247 31.948203297175723 C 0.0 **** -0.24
27157 H 41.15434236843936 22.1948271750247 33.01926981204315 H 0.0 **** 0.06
27158 H 40.76828640297845 21.544574959906242 31.407274300843994 H 0.0 **** 0.06
27159 H 42.21372023513459 22.557535487893148 31.63554518664347 H 0.0 **** 0.06
27160 H 40.5923506561374 23.286701583751096 31.730319370332268 H 0.0 **** 0.06
27161 C 34.52722974278154 122.19143096275641 109.75607234074073 C 0.0 **** -0.24
27162 H 34.35157105280098 122.11534127811657 108.68246148192964 H 0.0 **** 0.06
27163 H 35.27818949575638 121.4591950965654 110.0534407229402 H 0.0 **** 0.06
27164 H 33.597427215258335 121.99708599972146 110.29048336691397 H 0.0 **** 0.06
27165 H 34.88164143095679 123.19406363132907 109.99566981292458 H 0.0 **** 0.06
27166 C 14.566746051080656 75.53747584465569 51.60243272773688 C 0.0 **** -0.24
27167 H 13.608844152099493 76.05242195709333 51.53298279594759 H 0.0 **** 0.06
27168 H 15.348089399118095 76.16485484436073 51.17468632164021 H 0.0 **** 0.06
27169 H 14.513875128553309 74.59666632740779 51.054050570868284 H 0.0 **** 0.06
27170 H 14.794678646357141 75.33566103618595 52.64930348702576 H 0.0 **** 0.06
27171 C 107.2515264355396 135.57830181302373 118.71211514770738 C 0.0 **** -0.24
27172 H 108.1363015341098 135.48216040941978 118.08324417948643 H 0.0 **** 0.06
27173 H 106.36725974886903 135.6750311188677 118.08245673743187 H 0.0 **** 0.06
27174 H 107.34820339159026 136.4638693440242 119.34134850078703 H 0.0 **** 0.06
27175 H 107.15561600229043 134.69389776761622 119.34196554940979 H 0.0 **** 0.06
27176 C 148.86742496305595 157.0454216410492 110.65712308495864 C 0.0 **** -0.24
27177 H 149.41256727073502 156.43710157187044 111.37819616439259 H 0.0 **** 0.06
27178 H 148.02891396974337 156.47191400054896 110.25902984418553 H 0.0 **** 0.06
27179 H 149.53415288151825 157.32834243358744 109.84183933148492 H 0.0 **** 0.06
27180 H 148.49281724259768 157.94323110425117 111.1489402102575 H 0.0 **** 0.06
27181 C 137.13772743714338 94.98299349348389 97.3988451627032 C 0.0 **** -0.24
27182 H 137.59101084380814 95.27600179869086 96.45241285630618 H 0.0 **** 0.06
27183 H 137.85758396240197 94.4101689096342 97.98419246197227 H 0.0 **** 0.06
27184 H 136.2561437703954 94.37086910148943 97.20602438519052 H 0.0 **** 0.06
27185 H 136.846337743626 95.87455462485676 97.95366102097216 H 0.0 **** 0.06
27186 C 135.02337505241726 1.256617281174897 123.82416884021242 C 0.0 **** -0.24
27187 H 135.72441060287787 1.6035028823285984 124.58279745049302 H 0.0 **** 0.06
27188 H 135.2511021520183 1.7373294452496566 122.87300270014705 H 0.0 **** 0.06
27189 H 134.00699187886283 1.5112230514195062 124.12582597161764 H 0.0 **** 0.06
27190 H 135.10987496070075 0.1760460360144407 123.71608846945628 H 0.0 **** 0.06
27191 C 82.84915217883672 87.57874200810012 69.70383929013832 C 0.0 **** -0.24
27192 H 83.90070802786384 87.77703492908368 69.9094895953467 H 0.0 **** 0.06
27193 H 82.62560074462493 86.53532760730825 69.92872378357488 H 0.0 **** 0.06
27194 H 82.63988430432667 87.77619187831584 68.65284626488334 H 0.0 **** 0.06
27195 H 82.22892822223331 88.22505267779168 70.32526477381992 H 0.0 **** 0.06
27196 C 82.05556128905181 76.6677762817904 97.4600648206297 C 0.0 **** -0.24
27197 H 81.60678051245972 77.14514143286917 98.3320259597545 H 0.0 **** 0.06
27198 H 82.9678388637953 77.19692280887904 97.18606589390342 H 0.0 **** 0.06
27199 H 81.35214747411527 76.69908039916815 96.62770316363887 H 0.0 **** 0.06
27200 H 82.29303843422986 75.63039682901025 97.69615450282473 H 0.0 **** 0.06
27201 C 147.05949001300337 45.635831471634916 46.85012606361097 C 0.0 **** -0.24
27202 H 146.3547566174147 45.14689421427752 47.52251586633493 H 0.0 **** 0.06
27203 H 147.85762797292097 46.094905153498004 47.43376637812253 H 0.0 **** 0.06
27204 H 146.54120667215142 46.403638724533025 46.27665224191041 H 0.0 **** 0.06
27205 H 147.48373998457959 44.897179713271925 46.170586973321676 H 0.0 **** 0.06
27206 C 75.41580259167591 62.94334241518659 39.700236326103834 C 0.0 **** -0.24
27207 H 75.30152139822133 64.02772162336379 39.71134607706102 H 0.0 **** 0.06
27208 H 75.82895702011933 62.63172465117235 38.73987821409338 H 0.0 **** 0.06
27209 H 74.44338618684625 62.47408148799137 39.84694811923566 H 0.0 **** 0.06
27210 H 76.08986452310128 62.64133045562697 40.50089799020367 H 0.0 **** 0.06
27211 C 134.34042291291084 54.15738342753703 126.73724761020307 C 0.0 **** -0.24
27212 H 134.03142772508195 53.226266722611655 127.21187746638455 H 0.0 **** 0.06
27213 H 133.74310526470572 54.32264457228857 125.84026697811598 H 0.0 **** 0.06
27214 H 135.39394509380062 54.095300615108656 126.46664723871095 H 0.0 **** 0.06
27215 H 134.19102983340224 54.985002178892 127.4305583353052 H 0.0 **** 0.06
27216 C 54.42657000801313 6.94312778203539 154.6051065480369 C 0.0 **** -0.24
27217 H 54.790721875958496 6.659990036320977 153.61750779823223 H 0.0 **** 0.06
27218 H 55.27320113218565 7.072770070901498 155.28079252096765 H 0.0 **** 0.06
27219 H 53.773039391450084 6.159503399577261 154.98881923413705 H 0.0 **** 0.06
27220 H 53.871440350263015 7.877941567280402 154.53372674068913 H 0.0 **** 0.06
27221 C 10.902781329608409 143.61168172333743 90.23603637109832 C 0.0 **** -0.24
27222 H 10.952522535064368 143.68550847637084 91.32285158482698 H 0.0 **** 0.06
27223 H 11.193345054152097 142.60764858157847 89.92741683561113 H 0.0 **** 0.06
27224 H 11.581309649409185 144.3403311288866 89.79131258115636 H 0.0 **** 0.06
27225 H 9.884517220986275 143.8141345138788 89.90537052611693 H 0.0 **** 0.06
27226 C 76.02175291836545 56.191235267259785 80.02520809572474 C 0.0 **** -0.24
27227 H 76.67473938482972 56.81357209451821 79.4130190603308 H 0.0 **** 0.06
27228 H 75.02663912699705 56.634356493473675 80.06029326449767 H 0.0 **** 0.06
27229 H 76.42632482799272 56.12466696333344 81.03497790908645 H 0.0 **** 0.06
27230 H 75.96036519112896 55.1935618230919 79.59190674043815 H 0.0 **** 0.06
27231 C 91.48420565495917 29.416424514217113 0.9855537465082307 C 0.0 **** -0.24
27232 H 91.40288285611074 30.370188266174807 1.5067860934633472 H 0.0 **** 0.06
27233 H 90.80381006464079 29.41050557340799 0.13284704284632198 H 0.0 **** 0.06
27234 H 91.22271031542424 28.606893250829955 1.6653582103683107 H 0.0 **** 0.06
27235 H 92.50801803782812 29.28120681275027 0.6352092482733838 H 0.0 **** 0.06
27236 C 120.83795347727633 18.072273683539862 7.543226084914863 C 0.0 **** -0.24
27237 H 119.76350941531467 17.938594190558774 7.663178425972262 H 0.0 **** 0.06
27238 H 121.2730982715818 17.165630139239568 7.123668787593516 H 0.0 **** 0.06
27239 H 121.28931028511306 18.276338897460704 8.51462883514489 H 0.0 **** 0.06
27240 H 121.02748182135932 18.91069509940479 6.872771462642504 H 0.0 **** 0.06
27241 C 58.63553491405551 56.67670054553473 51.14330717629524 C 0.0 **** -0.24
27242 H 59.655404667121886 56.34314552145392 50.955603835772635 H 0.0 **** 0.06
27243 H 58.00906435770949 56.435133437791706 50.284161754373244 H 0.0 **** 0.06
27244 H 58.62954311103984 57.7548064820415 51.30516068176783 H 0.0 **** 0.06
27245 H 58.24621338208998 56.17467365905698 52.02949430714787 H 0.0 **** 0.06
27246 C 31.977765768385943 79.80342981065965 5.466228427622141 C 0.0 **** -0.24
27247 H 31.472153533647216 79.63120785016051 6.41563175451477 H 0.0 **** 0.06
27248 H 32.12066194899425 78.85276826802658 4.952872647462101 H 0.0 **** 0.06
27249 H 32.94750642381564 80.26715699357226 5.650470267750414 H 0.0 **** 0.06
27250 H 31.372077426681642 80.46494762928889 4.846737775383453 H 0.0 **** 0.06
27251 C 129.8303344398125 8.376741329658984 104.83440419481224 C 0.0 **** -0.24
27252 H 129.41941140328927 7.406001424625941 105.11259866876122 H 0.0 **** 0.06
27253 H 130.8119158498442 8.501192889182818 105.29270063664487 H 0.0 **** 0.06
27254 H 129.16390369943116 9.165838232378803 105.18270435665991 H 0.0 **** 0.06
27255 H 129.9246901092583 8.43371505345064 103.75058556634804 H 0.0 **** 0.06
27256 C 10.359427896586311 91.75401882966182 20.483544668412904 C 0.0 **** -0.24
27257 H 11.031515216431927 91.37003158662415 19.716197104657617 H 0.0 **** 0.06
27258 H 10.003501139572649 90.9285939437489 21.100663603229307 H 0.0 **** 0.06
27259 H 9.509695146520755 92.24458700398421 20.008274229312633 H 0.0 **** 0.06
27260 H 10.891207101308396 92.47207783286959 21.106770118937895 H 0.0 **** 0.06
27261 C 39.91424584208579 153.01034104585747 120.59044012888262 C 0.0 **** -0.24
27262 H 39.394180181567094 152.69842241230344 121.49684807675271 H 0.0 **** 0.06
27263 H 39.6018880731412 152.3788065580017 119.7578791913171 H 0.0 **** 0.06
27264 H 40.98976470288039 152.91315540968304 120.73771871288079 H 0.0 **** 0.06
27265 H 39.6698690907931 154.0490797504683 120.37017951951361 H 0.0 **** 0.06
27266 C 129.67744188153694 118.96816714214418 144.49751080305975 C 0.0 **** -0.24
27267 H 129.9404226296234 119.90699207262674 144.98361232952564 H 0.0 **** 0.06
27268 H 129.00792792057757 119.16708058667419 143.66029973483455 H 0.0 **** 0.06
27269 H 129.1802411277606 118.31382129805553 145.21368102580584 H 0.0 **** 0.06
27270 H 130.58301090282134 118.48366414534402 144.1312670662404 H 0.0 **** 0.06
27271 C 124.61321981149021 41.46866450485405 52.33563701272146 C 0.0 **** -0.24
27272 H 125.04914145462212 42.453226907080236 52.16474796123231 H 0.0 **** 0.06
27273 H 123.57519366883159 41.46757437669693 52.00148221838694 H 0.0 **** 0.06
27274 H 124.65377794224307 41.23273282959613 53.39863471428015 H 0.0 **** 0.06
27275 H 125.17565868702235 40.720974117109364 51.77563837194592 H 0.0 **** 0.06
27276 C 45.54052974186425 85.69639252808649 12.44283878981446 C 0.0 **** -0.24
27277 H 46.51129991439268 85.42714414199791 12.025985756557702 H 0.0 **** 0.06
27278 H 45.40345183577443 86.77520870193273 12.376641102074586 H 0.0 **** 0.06
27279 H 45.495366413441616 85.38695054800714 13.487555892484266 H 0.0 **** 0.06
27280 H 44.7531759577364 85.19465504214841 11.881025346091661 H 0.0 **** 0.06
27281 C 37.69075251974246 8.465796412361748 29.628343546825874 C 0.0 **** -0.24
27282 H 38.160450717661206 7.490238974810104 29.75583142583463 H 0.0 **** 0.06
27283 H 38.11205953217869 8.959424983523924 28.75221278536185 H 0.0 **** 0.06
27284 H 37.87334412826958 9.075724234909266 30.51262924040219 H 0.0 **** 0.06
27285 H 36.616841865130255 8.33632604652177 29.491382941561767 H 0.0 **** 0.06
27286 C 32.26815250111406 115.36627187065929 37.24249284859968 C 0.0 **** -0.24
27287 H 33.059065064487584 116.11315302006224 37.29873050885254 H 0.0 **** 0.06
27288 H 32.18618423733466 114.85206670665795 38.20044437655946 H 0.0 **** 0.06
27289 H 32.50428105475305 114.64457678952772 36.46135180366139 H 0.0 **** 0.06
27290 H 31.322301778351715 115.85617780153018 37.01022477121211 H 0.0 **** 0.06
27291 C 154.5226940811756 145.23395068081626 116.24285281398252 C 0.0 **** -0.24
27292 H 155.18924247197543 144.7365696427438 115.53900682901087 H 0.0 **** 0.06
27293 H 153.5223733517379 145.29790461972698 115.81361020847717 H 0.0 **** 0.06
27294 H 154.8958675548456 146.23767680246692 116.44795841609377 H 0.0 **** 0.06
27295 H 154.48434756118502 144.6637393745976 117.17177396722187 H 0.0 **** 0.06
27296 C 49.740701335913144 66.7682340801432 161.74102807887033 C 0.0 **** -0.24
27297 H 48.968361924676586 66.01409779048242 161.58681986323714 H 0.0 **** 0.06
27298 H 49.40933270286317 67.71791116690531 161.32106365823384 H 0.0 **** 0.06
27299 H 50.65985853670179 66.45288747456198 161.246566315811 H 0.0 **** 0.06
27300 H 49.92338806982535 66.88576779395191 162.80906002249324 H 0.0 **** 0.06
27301 C 150.85035164285176 79.66615902223826 87.82128491662269 C 0.0 **** -0.24
27302 H 150.27547763501573 80.58931865553454 87.74850429133863 H 0.0 **** 0.06
27303 H 151.8649831289286 79.89565106904094 88.15047221350204 H 0.0 **** 0.06
27304 H 150.88549179228704 79.18174205395432 86.84534678635077 H 0.0 **** 0.06
27305 H 150.37679209451073 78.99935552458312 88.54228652862534 H 0.0 **** 0.06
27306 C 105.68422257252834 23.508185544645414 161.1059361292581 C 0.0 **** -0.24
27307 H 104.92334471855304 23.126195489728218 160.4261145996009 H 0.0 **** 0.06
27308 H 105.58709320526137 23.01619337570787 162.07359693773003 H 0.0 **** 0.06
27309 H 105.55454053164473 24.58292193336746 161.23006950216785 H 0.0 **** 0.06
27310 H 106.67378244958832 23.30642149671513 160.69326987327503 H 0.0 **** 0.06
27311 C 127.31569414283933 88.76653726256532 2.137808708377065 C 0.0 **** -0.24
27312 H 126.92360644446083 89.7780285637826 2.2431910396430794 H 0.0 **** 0.06
27313 H 128.11215337040483 88.6086221946055 2.8649196917917266 H 0.0 **** 0.06
27314 H 127.710407689388 88.63390754336501 1.1310195562613785 H 0.0 **** 0.06
27315 H 126.51584394373944 88.04713396148998 2.3131210105925106 H 0.0 **** 0.06
27316 C 87.93024803131141 151.8148593853226 97.22616444006064 C 0.0 **** -0.24
27317 H 87.05724102681677 151.34247278667073 97.67541659388712 H 0.0 **** 0.06
27318 H 88.36573855867766 151.1434606670633 96.48674805580026 H 0.0 **** 0.06
27319 H 88.66555401917736 152.03012760877155 98.00041149555784 H 0.0 **** 0.06
27320 H 87.63017819308078 152.74461063404587 96.7409514783883 H 0.0 **** 0.06
27321 C 159.1689797937314 154.85192242536232 127.39797361839925 C 0.0 **** -0.24
27322 H 159.32198010469756 155.9308304892918 127.40915997104267 H 0.0 **** 0.06
27323 H 159.78086521523431 154.3899918918777 128.17257497374194 H 0.0 **** 0.06
27324 H 159.4538238130625 154.45498711728368 126.4231735739242 H 0.0 **** 0.06
27325 H 158.11789936101943 154.63352390526933 127.58629743850386 H 0.0 **** 0.06
27326 C 79.86563163803248 149.89395531030038 30.083189791536796 C 0.0 **** -0.24
27327 H 80.02289252220929 148.81535351970155 30.071022116250674 H 0.0 **** 0.06
27328 H 80.38015608505481 150.32672126918993 30.941972719428293 H 0.0 **** 0.06
27329 H 78.79766224963176 150.1042221265559 30.155509668686676 H 0.0 **** 0.06
27330 H 80.26056022593133 150.32872584245905 29.16514140402026 H 0.0 **** 0.06
27331 C 112.28460898509445 87.21606862237286 53.694474335177716 C 0.0 **** -0.24
27332 H 113.27303785279838 87.6467879244428 53.53078515252153 H 0.0 **** 0.06
27333 H 112.08330685549333 87.1649785203701 54.764915429493996 H 0.0 **** 0.06
27334 H 112.25040293342812 86.21294233500184 53.26962559940051 H 0.0 **** 0.06
27335 H 111.53313914154899 87.84143023561583 53.21192402792627 H 0.0 **** 0.06
27336 C 145.0323122181037 82.26428350248958 150.06924113238796 C 0.0 **** -0.24
27337 H 145.42188775773155 82.51156215978196 151.05674810450833 H 0.0 **** 0.06
27338 H 144.16607232755894 81.611456520383 150.17441824360074 H 0.0 **** 0.06
27339 H 145.80387319186826 81.7547479220452 149.49186602230162 H 0.0 **** 0.06
27340 H 144.73921420317134 83.17981342103826 149.55468462338118 H 0.0 **** 0.06
27341 C 47.065035595137886 96.96635956341237 154.66853482433504 C 0.0 **** -0.24
27342 H 47.936804326943616 97.21642058810315 155.27340805614097 H 0.0 **** 0.06
27343 H 47.36119574031102 96.28860045150701 153.86753068710348 H 0.0 **** 0.06
27344 H 46.64721482212656 97.87666669985472 154.2391602097971 H 0.0 **** 0.06
27345 H 46.315125202751915 96.48378267107046 155.29502009235063 H 0.0 **** 0.06
27346 C 133.13432103591435 94.61596204132006 73.19543487032288 C 0.0 **** -0.24
27347 H 133.77000937312513 95.13399690490365 73.91476450828944 H 0.0 **** 0.06
27348 H 132.82258536077708 95.31365705004004 72.41750979010864 H 0.0 **** 0.06
27349 H 132.25434750533503 94.22412734402613 73.7056446452121 H 0.0 **** 0.06
27350 H 133.6907239990006 93.79395422580862 72.7465209468795 H 0.0 **** 0.06
27351 C 158.1203562789306 122.8731604719855 114.68402361649589 C 0.0 **** -0.24
27352 H 159.0788480520067 122.86598413584048 114.16604017492074 H 0.0 **** 0.06
27353 H 157.87407887210193 123.89359946082513 114.97848682572459 H 0.0 **** 0.06
27354 H 158.18290660786496 122.2427847015 115.5717058430626 H 0.0 **** 0.06
27355 H 157.34608570776365 122.48940613505297 114.01980336473386 H 0.0 **** 0.06
27356 C 153.87559376058778 129.69491486237322 54.87473389190707 C 0.0 **** -0.24
27357 H 154.06900405562675 130.4474563839703 54.10993091827105 H 0.0 **** 0.06
27358 H 154.4402541774889 128.7908882626251 54.64510941914118 H 0.0 **** 0.06
27359 H 152.81106137111271 129.46364911732456 54.896269325673 H 0.0 **** 0.06
27360 H 154.1834894043613 130.07937592689572 55.8477636228985 H 0.0 **** 0.06
27361 C 150.57086916111 100.49040066364694 19.910771559953844 C 0.0 **** -0.24
27362 H 150.36565545888072 99.86396017369321 20.77923659959739 H 0.0 **** 0.06
27363 H 151.02451513415122 99.8852759526344 19.126279208208224 H 0.0 **** 0.06
27364 H 151.2542629134498 101.29075863635461 20.19470985303184 H 0.0 **** 0.06
27365 H 149.63879254205338 100.9204885671154 19.54563268744038 H 0.0 **** 0.06
27366 C 11.002094670462895 110.27414527744133 159.8575328769446 C 0.0 **** -0.24
27367 H 10.802703816133203 110.31596677865613 160.9281827244388 H 0.0 **** 0.06
27368 H 10.099625236487555 110.54221259870354 159.30805340321973 H 0.0 **** 0.06
27369 H 11.30729045887557 109.2632610985574 159.58469298819534 H 0.0 **** 0.06
27370 H 11.799863358600874 110.97438079519506 159.6096534727363 H 0.0 **** 0.06
27371 C 52.322604761916864 2.4960642627131264 158.6927854988 C 0.0 **** -0.24
27372 H 52.60058545261609 3.522972409875557 158.45467783182733 H 0.0 **** 0.06
27373 H 51.35852677198227 2.490150048744532 159.20311143580608 H 0.0 **** 0.06
27374 H 53.0797350873753 2.0563769492805335 159.342823669471 H 0.0 **** 0.06
27375 H 52.25135926226838 1.915730859491319 157.77317631064304 H 0.0 **** 0.06
27376 C 129.86030176463953 62.86066790842378 1.9917775463811154 C 0.0 **** -0.24
27377 H 129.74283716491544 63.57473838185959 2.807585315975473 H 0.0 **** 0.06
27378 H 130.9212944490406 62.703367033577564 1.7975590705096636 H 0.0 **** 0.06
27379 H 129.37999637864422 63.2516846089608 1.0958185749412905 H 0.0 **** 0.06
27380 H 129.3963487140122 61.914005053117705 2.26934172283444 H 0.0 **** 0.06
27381 C 35.66024500558689 106.86167150442142 130.4079928802106 C 0.0 **** -0.24
27382 H 36.27541327139393 107.18458495549103 129.5680644509589 H 0.0 **** 0.06
27383 H 35.071555072860264 107.70337377447504 130.772606790211 H 0.0 **** 0.06
27384 H 36.30330214590188 106.4936447818443 131.20779017825197 H 0.0 **** 0.06
27385 H 34.99310642127712 106.0633873723886 130.08289226908605 H 0.0 **** 0.06
27386 C 81.65229632703017 146.31111430613512 60.03857717549107 C 0.0 **** -0.24
27387 H 81.13547743354474 145.3628484024589 59.88944677389736 H 0.0 **** 0.06
27388 H 82.69896575659571 146.20367055073578 59.75561468474211 H 0.0 **** 0.06
27389 H 81.58591647044591 146.59850190458712 61.08788310654842 H 0.0 **** 0.06
27390 H 81.1852793081243 147.07880801649398 59.421193710626255 H 0.0 **** 0.06
27391 C 24.62325006625997 161.8626576285892 144.2582812189933 C 0.0 **** -0.24
27392 H 24.20923252322632 162.83543598575747 143.99469523655512 H 0.0 **** 0.06
27393 H 24.677926377573726 161.23726129937077 143.36651901641736 H 0.0 **** 0.06
27394 H 23.98228782339538 161.38400927857262 144.99953762217592 H 0.0 **** 0.06
27395 H 25.623553540844227 161.9939239506559 144.6723730008249 H 0.0 **** 0.06
27396 C 117.9040511733206 116.12097776855683 74.59059070842218 C 0.0 **** -0.24
27397 H 118.90590815263496 116.54938505383254 74.6322040882124 H 0.0 **** 0.06
27398 H 117.17407264948793 116.87298389347166 74.89194105550632 H 0.0 **** 0.06
27399 H 117.8463859922561 115.26742883128665 75.26609259342928 H 0.0 **** 0.06
27400 H 117.6909072491878 115.7938717404763 73.57301851773664 H 0.0 **** 0.06
27401 C 7.261000370280215 93.65072206211188 26.91670152997156 C 0.0 **** -0.24
27402 H 7.085893815362994 92.58198145927534 27.043354988497413 H 0.0 **** 0.06
27403 H 6.358883829920046 94.2004192020997 27.18623385400747 H 0.0 **** 0.06
27404 H 7.515083252775042 93.85540447616691 25.876414612512747 H 0.0 **** 0.06
27405 H 8.083786018862895 93.96200299164296 27.560180208961242 H 0.0 **** 0.06
27406 C 74.05372102495883 115.33162256033194 52.723637157911895 C 0.0 **** -0.24
27407 H 74.3562328065064 115.69365312648407 53.70591325316022 H 0.0 **** 0.06
27408 H 72.96852519431184 115.2287270508096 52.69275978706028 H 0.0 **** 0.06
27409 H 74.51535541888506 114.36172550119736 52.53567634249987 H 0.0 **** 0.06
27410 H 74.37358693604605 116.04024766231316 51.96001872975566 H 0.0 **** 0.06
27411 C 104.8957549604209 107.49678406254083 84.36558262435588 C 0.0 **** -0.24
27412 H 103.84186696648925 107.50566108788124 84.64602903636893 H 0.0 **** 0.06
27413 H 105.24510052467184 106.4658208718858 84.30292917420589 H 0.0 **** 0.06
27414 H 105.47471098858364 108.03289565500856 85.11751887904626 H 0.0 **** 0.06
27415 H 105.01740502273327 107.98272459342456 83.39819961934118 H 0.0 **** 0.06
27416 C 35.48835199635799 123.77916707237677 126.3602815741628 C 0.0 **** -0.24
27417 H 35.25232555879671 122.78655581416163 125.97433945140966 H 0.0 **** 0.06
27418 H 35.098550579634264 124.53509939078799 125.67791871728912 H 0.0 **** 0.06
27419 H 36.56990162882616 123.88809911804793 126.44400775672432 H 0.0 **** 0.06
27420 H 35.03311192278625 123.90466730521521 127.34190725487133 H 0.0 **** 0.06
27421 C 78.36508816265129 29.788150952839572 136.80956159848907 C 0.0 **** -0.24
27422 H 78.12674938943277 28.876377829845552 136.26203146057634 H 0.0 **** 0.06
27423 H 78.32452866248157 30.641004925077198 136.13232318297165 H 0.0 **** 0.06
27424 H 79.36649677270535 29.706815109360832 137.23223657028328 H 0.0 **** 0.06
27425 H 77.64198316422485 29.927610551889387 137.6136586458196 H 0.0 **** 0.06
27426 C 19.529797325590124 82.88066957941719 25.444743134866343 C 0.0 **** -0.24
27427 H 20.453614672897515 82.40547140942965 25.77447948440934 H 0.0 **** 0.06
27428 H 18.872830243198194 83.0313545536978 26.301251244299237 H 0.0 **** 0.06
27429 H 19.03425664308716 82.24304131483032 24.712592544970136 H 0.0 **** 0.06
27430 H 19.760726758016006 83.84441716327912 24.989462905277406 H 0.0 **** 0.06
27431 C 158.92133875027622 93.74287600327258 15.621336230089923 C 0.0 **** -0.24
27432 H 159.23241198814486 93.49123575471152 16.634606896200978 H 0.0 **** 0.06
27433 H 158.35925741637573 94.6759872182393 15.63474710441352 H 0.0 **** 0.06
27434 H 158.29202960403092 92.94463110072405 15.226312224330911 H 0.0 **** 0.06
27435 H 159.8016763880206 93.8574144722672 14.989629486124784 H 0.0 **** 0.06
27436 C 26.39926238236172 9.222225854192516 102.18893315179034 C 0.0 **** -0.24
27437 H 26.690699645963903 10.129314701279498 102.71866044811199 H 0.0 **** 0.06
27438 H 25.929834323098085 9.488979054632068 101.242893599175 H 0.0 **** 0.06
27439 H 25.694785224223992 8.65687745964533 102.79840748277599 H 0.0 **** 0.06
27440 H 27.28357036050607 8.614221438973175 101.99786277455837 H 0.0 **** 0.06
27441 C 158.5845391598655 139.27469071524968 115.64625214423057 C 0.0 **** -0.24
27442 H 158.66743390802773 139.64419361707013 116.66858669630054 H 0.0 **** 0.06
27443 H 159.3045557942046 139.79412616041895 115.01320258278639 H 0.0 **** 0.06
27444 H 157.57585191293418 139.45744123544813 115.27474956808811 H 0.0 **** 0.06
27445 H 158.79013888485522 138.20431764867453 115.62895727872362 H 0.0 **** 0.06
27446 C 35.92339930383186 96.47283479705189 54.68681547456998 C 0.0 **** -0.24
27447 H 35.68246595488287 95.65416269756582 55.36492827567824 H 0.0 **** 0.06
27448 H 35.10468157616346 96.61224885439574 53.98029591847177 H 0.0 **** 0.06
27449 H 36.83820114924343 96.23713546663426 54.14338355234389 H 0.0 **** 0.06
27450 H 36.06723726083693 97.38836682768692 55.26080990540538 H 0.0 **** 0.06
27451 C 82.56334710925029 79.45169105294855 162.80059683342074 C 0.0 **** -0.24
27452 H 82.48896065031829 79.9227777097039 163.78056410996447 H 0.0 **** 0.06
27453 H 83.57581634933015 79.0751931679371 162.6546748081536 H 0.0 **** 0.06
27454 H 82.33110511185302 80.18359933110906 162.02703443737317 H 0.0 **** 0.06
27455 H 81.85555502939025 78.6241786965912 162.74215404385762 H 0.0 **** 0.06
27456 C 154.69393561851825 111.04767582765868 148.11725669005057 C 0.0 **** -0.24
27457 H 154.59299789800252 112.10002684083292 147.85299591293506 H 0.0 **** 0.06
27458 H 153.71772045325883 110.64721989374053 148.39417890061785 H 0.0 **** 0.06
27459 H 155.3793950880347 110.94772942038963 148.95841652376524 H 0.0 **** 0.06
27460 H 155.08417841119086 110.49379860272205 147.26301523743487 H 0.0 **** 0.06
27461 C 27.49446702335831 70.52664929697012 121.51823895653376 C 0.0 **** -0.24
27462 H 27.80555175003485 71.38775013072582 122.10892286090686 H 0.0 **** 0.06
27463 H 26.949999517306303 69.82824118621292 122.15366408825196 H 0.0 **** 0.06
27464 H 28.374399103888827 70.03217583559854 121.10569027809777 H 0.0 **** 0.06
27465 H 26.849623580434013 70.85832487844804 120.7043973867431 H 0.0 **** 0.06
27466 C 102.93086725456561 32.84955130254043 76.1829762436125 C 0.0 **** -0.24
27467 H 102.2666771360939 33.6161017584904 75.78473797577817 H 0.0 **** 0.06
27468 H 103.81586878943602 33.32194786230757 76.61098754498231 H 0.0 **** 0.06
27469 H 103.23114766326557 32.17585133685837 75.37991091999217 H 0.0 **** 0.06
27470 H 102.41049742782707 32.2837117482294 76.95662586719847 H 0.0 **** 0.06
27471 C 40.97691003329945 30.057512134590752 31.834979615788974 C 0.0 **** -0.24
27472 H 40.91432874658403 28.992351978504374 31.614363995928493 H 0.0 **** 0.06
27473 H 39.97416540224987 30.486053461952878 31.845000895030005 H 0.0 **** 0.06
27474 H 41.57687271125178 30.552392443517753 31.070576480557733 H 0.0 **** 0.06
27475 H 41.44275319488989 30.200580756549755 32.81000083371502 H 0.0 **** 0.06
27476 C 93.73292059943856 90.52410585293256 99.3060713162402 C 0.0 **** -0.24
27477 H 94.09922407771795 89.52498972764954 99.071581306599 H 0.0 **** 0.06
27478 H 93.02272350382208 90.8392551882718 98.54141397683563 H 0.0 **** 0.06
27479 H 94.57004333874774 91.22039672402872 99.33459055472 H 0.0 **** 0.06
27480 H 93.23780215343584 90.51024023288849 100.27813272858603 H 0.0 **** 0.06
27481 C 127.08146013919475 100.37804644985485 133.12484269249492 C 0.0 **** -0.24
27482 H 127.34797747519843 101.43119334494696 133.22055068235431 H 0.0 **** 0.06
27483 H 127.11464330119748 100.08934047645099 132.07316419297777 H 0.0 **** 0.06
27484 H 126.07560934850403 100.22149318930329 133.51323564937522 H 0.0 **** 0.06
27485 H 127.78874248703849 99.77146661346552 133.69068582126843 H 0.0 **** 0.06
27486 C 137.3258628778843 157.58800613392566 102.10269647820704 C 0.0 **** -0.24
27487 H 138.2410720051031 158.14217079411344 102.30983561983524 H 0.0 **** 0.06
27488 H 136.46695723267652 158.1605453950392 102.45507949575835 H 0.0 **** 0.06
27489 H 137.35786551401168 156.6275851965505 102.61802776709035 H 0.0 **** 0.06
27490 H 137.2364223814964 157.42184369216554 101.02976625828313 H 0.0 **** 0.06
27491 C 57.43583295015091 98.95234198908366 29.44906939892317 C 0.0 **** -0.24
27492 H 58.452706780305334 98.71372384705168 29.138124326059454 H 0.0 **** 0.06
27493 H 57.22244961061051 98.46110257626506 30.39954155017449 H 0.0 **** 0.06
27494 H 56.73270342949053 98.60188702326158 28.69315732372752 H 0.0 **** 0.06
27495 H 57.33494432812853 100.03098558551429 29.566845951000943 H 0.0 **** 0.06
27496 C 71.6954806411638 16.57360092350291 133.63663955428825 C 0.0 **** -0.24
27497 H 72.10870137725797 17.056129282267648 134.52322847149352 H 0.0 **** 0.06
27498 H 71.4652584298582 17.330419402575103 132.885301784083 H 0.0 **** 0.06
27499 H 70.78497746096123 16.03934216523686 133.90575171821425 H 0.0 **** 0.06
27500 H 72.42484258898628 15.870807385403566 133.23378815484244 H 0.0 **** 0.06
27501 C 5.020228496659769 27.092740519570384 57.416550894078796 C 0.0 **** -0.24
27502 H 5.928427206743422 26.597851088245704 57.762001960207385 H 0.0 **** 0.06
27503 H 5.287908606399192 27.974686011004735 56.832838269378385 H 0.0 **** 0.06
27504 H 4.421044849894301 27.39243764382792 58.276044018508856 H 0.0 **** 0.06
27505 H 4.4465111899417025 26.40605812181957 56.79496215467691 H 0.0 **** 0.06
27506 C 154.64990876998303 129.6377722502624 93.77253529414806 C 0.0 **** -0.24
27507 H 155.2820685408701 128.78504480305122 94.01856528534584 H 0.0 **** 0.06
27508 H 154.06802821824763 129.9244841378395 94.64843093251524 H 0.0 **** 0.06
27509 H 153.97559626694698 129.36700532841985 92.95999989065734 H 0.0 **** 0.06
27510 H 155.2749162667684 130.4751373695825 93.46097444064199 H 0.0 **** 0.06
27511 C 98.78236603400362 92.1258237146737 79.47700290346913 C 0.0 **** -0.24
27512 H 99.64739971863415 92.52287063336226 80.00756232918853 H 0.0 **** 0.06
27513 H 98.79389986499112 92.48246513959297 78.44638233167058 H 0.0 **** 0.06
27514 H 97.86904395416363 92.46306306693053 79.9679084718047 H 0.0 **** 0.06
27515 H 98.8196340752786 91.03728623241113 79.48600550627233 H 0.0 **** 0.06
27516 C 46.411690403595955 131.35080918020117 11.399949774739497 C 0.0 **** -0.24
27517 H 47.370630705966704 131.8143362315539 11.164131871773463 H 0.0 **** 0.06
27518 H 46.19838707931318 131.4770394298541 12.461552563832669 H 0.0 **** 0.06
27519 H 46.45526444957453 130.28781796525678 11.161446411220425 H 0.0 **** 0.06
27520 H 45.62608202918747 131.82419117425587 10.811668547054865 H 0.0 **** 0.06
27521 C 29.904308773506663 133.01730899370736 127.72657739687082 C 0.0 **** -0.24
27522 H 30.638214099890867 133.6684951329269 127.25182858093683 H 0.0 **** 0.06
27523 H 30.10848494275232 132.95782479292572 128.79545136796267 H 0.0 **** 0.06
27524 H 29.96625124616751 132.02039694399923 127.28815932605843 H 0.0 **** 0.06
27525 H 28.905201481021436 133.42194626508237 127.56891283690032 H 0.0 **** 0.06
27526 C 104.27612903792775 27.408198467819744 45.16872356217786 C 0.0 **** -0.24
27527 H 104.23498577954288 26.65829624719983 44.37828648695975 H 0.0 **** 0.06
27528 H 103.337676954659 27.403252198674622 45.72277416028595 H 0.0 **** 0.06
27529 H 104.43297484954735 28.392475870836023 44.7281407396556 H 0.0 **** 0.06
27530 H 105.09863184901965 27.176558166005826 45.844668619911005 H 0.0 **** 0.06
27531 C 48.70507566100653 54.30011825045386 17.56119482080456 C 0.0 **** -0.24
27532 H 47.98578947806358 54.99370705833155 17.995259068038877 H 0.0 **** 0.06
27533 H 48.18251802857665 53.41612320008454 17.196102888988776 H 0.0 **** 0.06
27534 H 49.43062227797347 54.007291656857376 18.319319818998082 H 0.0 **** 0.06
27535 H 49.221088888799486 54.784336270706376 16.732110317278767 H 0.0 **** 0.06
27536 C 4.863387553146836 129.24830145154408 116.17753393218732 C 0.0 **** -0.24
27537 H 5.623648743227001 128.48539251116688 116.34627853068045 H 0.0 **** 0.06
27538 H 5.338768875442355 130.15994773967782 115.81525985570156 H 0.0 **** 0.06
27539 H 4.34409804897804 129.45576411219724 117.11263258009288 H 0.0 **** 0.06
27540 H 4.148971222930335 128.89060194967004 115.43593347662843 H 0.0 **** 0.06
27541 C 16.7740582305683 125.47576008157358 144.17003851180135 C 0.0 **** -0.24
27542 H 15.803896289454457 125.12817517765885 143.81381326936204 H 0.0 **** 0.06
27543 H 16.894939776069123 126.5302296126792 143.92383638628132 H 0.0 **** 0.06
27544 H 17.56440245840983 124.89708727717587 143.69139181728963 H 0.0 **** 0.06
27545 H 16.830626355913182 125.3455784678234 145.25039661306383 H 0.0 **** 0.06
27546 C 97.95874384724857 111.69795965188933 61.32225018638405 C 0.0 **** -0.24
27547 H 98.18364908653541 111.05738878482612 62.174478692418575 H 0.0 **** 0.06
27548 H 97.30436780251199 111.166207537471 60.63063138018305 H 0.0 **** 0.06
27549 H 98.88592005170665 111.96420395206462 60.81393420266221 H 0.0 **** 0.06
27550 H 97.46230837693477 112.60349318420879 61.668912351393914 H 0.0 **** 0.06
27551 C 152.73816548172738 19.53407248446471 94.31891572332114 C 0.0 **** -0.24
27552 H 152.44333357280223 19.77441965988438 95.34033103210754 H 0.0 **** 0.06
27553 H 151.9752706106067 19.89251653799711 93.62753222331942 H 0.0 **** 0.06
27554 H 152.84376837158982 18.454206173686636 94.21643340164384 H 0.0 **** 0.06
27555 H 153.68937904744246 20.016676866653526 94.09304930806114 H 0.0 **** 0.06
27556 C 79.09788407292206 158.2578757272574 102.70952309471784 C 0.0 **** -0.24
27557 H 78.39223674366715 158.7035230428923 103.41089759073736 H 0.0 **** 0.06
27558 H 79.91955021230703 157.80249963129177 103.26226735774213 H 0.0 **** 0.06
27559 H 79.48866335952397 159.0318940762633 102.04834458125907 H 0.0 **** 0.06
27560 H 78.58972521918105 157.49728741630489 102.11778681952114 H 0.0 **** 0.06
27561 C 97.15649970703282 56.54691984920575 125.37269996348039 C 0.0 **** -0.24
27562 H 97.735944890419 55.67124941792902 125.0768342993789 H 0.0 **** 0.06
27563 H 97.15644023651853 57.27265731562095 124.56011707631058 H 0.0 **** 0.06
27564 H 97.60293599370237 56.99438122921896 126.26107816592832 H 0.0 **** 0.06
27565 H 96.13240611529436 56.24565882635467 125.59248613051568 H 0.0 **** 0.06
27566 C 97.70826715639333 72.84975121550745 87.54934204756432 C 0.0 **** -0.24
27567 H 97.4656500410795 71.79708985942686 87.39886644841243 H 0.0 **** 0.06
27568 H 98.11441882668254 72.98787603060335 88.55217516462051 H 0.0 **** 0.06
27569 H 96.8052932825635 73.45004110958291 87.43623990690298 H 0.0 **** 0.06
27570 H 98.44759816661494 73.16090391317394 86.81127666162618 H 0.0 **** 0.06
27571 C 111.29358353224242 58.09076400469826 44.555828323080675 C 0.0 **** -0.24
27572 H 110.37027748354609 58.275319591195114 44.00775716285432 H 0.0 **** 0.06
27573 H 111.81574649739775 57.242173466866234 44.112208173862314 H 0.0 **** 0.06
27574 H 111.05956981704853 57.8696412498368 45.597335007213985 H 0.0 **** 0.06
27575 H 111.92808329169054 58.97517924333192 44.50614360624229 H 0.0 **** 0.06
27576 C 55.00788679420799 122.69676748501249 160.27979955397944 C 0.0 **** -0.24
27577 H 55.193193358686685 123.13287705003881 161.26144958444507 H 0.0 **** 0.06
27578 H 54.67657410508865 123.47661411462994 159.5933725566577 H 0.0 **** 0.06
27579 H 54.23521441696123 121.93243598647811 160.36211972567236 H 0.0 **** 0.06
27580 H 55.92621112070448 122.24725075129794 159.90345269165852 H 0.0 **** 0.06
27581 C 48.202356874544165 153.9283099253849 67.59460146305719 C 0.0 **** -0.24
27582 H 48.26484345695167 153.86057733276397 66.50903730382697 H 0.0 **** 0.06
27583 H 48.180918855059076 152.92545258140626 68.0204164424891 H 0.0 **** 0.06
27584 H 47.293676898431954 154.46132082165065 67.87312061746401 H 0.0 **** 0.06
27585 H 49.07085624361176 154.46634265902242 67.97481125546518 H 0.0 **** 0.06
27586 C 104.94329280766257 100.73825246544058 107.85244464652294 C 0.0 **** -0.24
27587 H 105.31456034507124 101.2527573288657 106.96678388623786 H 0.0 **** 0.06
27588 H 105.78531233155124 100.42747930065465 108.47199130091104 H 0.0 **** 0.06
27589 H 104.37119705014453 99.86056409018988 107.55033963150186 H 0.0 **** 0.06
27590 H 104.30232733458945 101.41187350526815 108.42201890905801 H 0.0 **** 0.06
27591 C 53.705422097465544 91.29352656905573 109.60654910440851 C 0.0 **** -0.24
27592 H 53.45363453078261 91.50689167306521 110.64467971533355 H 0.0 **** 0.06
27593 H 54.21318289002875 90.33076732913074 109.54627069069622 H 0.0 **** 0.06
27594 H 54.36090160188314 92.0757975271722 109.22432585678837 H 0.0 **** 0.06
27595 H 52.792774910382434 91.2613195179046 109.01056696918641 H 0.0 **** 0.06
27596 C 87.95215675053623 95.88185132522159 154.33249806907085 C 0.0 **** -0.24
27597 H 87.33007413764406 96.71041966178467 154.67358551112264 H 0.0 **** 0.06
27598 H 87.35069059942394 94.97392128876506 154.2812399702354 H 0.0 **** 0.06
27599 H 88.77405533043444 95.7336316681001 155.03308676424766 H 0.0 **** 0.06
27600 H 88.3518921272129 96.11097808814345 153.34538846628283 H 0.0 **** 0.06
27601 C 150.57738425759422 2.849562422394314 143.35280921997122 C 0.0 **** -0.24
27602 H 150.7992043571329 3.824130117809716 142.91755927308986 H 0.0 **** 0.06
27603 H 151.49860159590187 2.2718106229092996 143.43521288314267 H 0.0 **** 0.06
27604 H 149.87107469316499 2.319099877294576 142.71272781916645 H 0.0 **** 0.06
27605 H 150.14149897093978 2.983765201664994 144.34213396271875 H 0.0 **** 0.06
27606 C 12.520109967007386 71.09882181757246 93.29009317419036 C 0.0 **** -0.24
27607 H 11.602649258796475 70.54442640858474 93.48986419884591 H 0.0 **** 0.06
27608 H 13.221830449647939 70.45789528486125 92.75507220229343 H 0.0 **** 0.06
27609 H 12.963875649627312 71.4185456221378 94.23280763593266 H 0.0 **** 0.06
27610 H 12.289398095753086 71.97303331218723 92.68170091885975 H 0.0 **** 0.06
27611 C 37.248211212578724 159.87868585056086 37.59318862098152 C 0.0 **** -0.24
27612 H 36.40919585488507 160.39106290171654 37.121187690992826 H 0.0 **** 0.06
27613 H 37.321781515313546 158.86504528105257 37.198842236488986 H 0.0 **** 0.06
27614 H 37.09001851767374 159.83972995580913 38.67065247021151 H 0.0 **** 0.06
27615 H 38.17023754602769 160.41973408063632 37.38076191431058 H 0.0 **** 0.06
27616 C 76.02723062855245 110.64160291727887 118.45806242984531 C 0.0 **** -0.24
27617 H 75.98725196693027 111.61418155484665 117.9663781904818 H 0.0 **** 0.06
27618 H 75.69283996969307 110.74233631838996 119.49078336813591 H 0.0 **** 0.06
27619 H 77.05170479632653 110.27001642850752 118.44115056922556 H 0.0 **** 0.06
27620 H 75.37797890178149 109.9421493291826 117.93167690427867 H 0.0 **** 0.06
27621 C 110.28474462620869 154.43434596641995 13.31400227709554 C 0.0 **** -0.24
27622 H 111.32467479885506 154.66593559870626 13.54520207686653 H 0.0 **** 0.06
27623 H 110.24228483922099 153.79663371296516 12.43054479051932 H 0.0 **** 0.06
27624 H 109.74072546655862 155.35844119743345 13.122268162599823 H 0.0 **** 0.06
27625 H 109.83193992288082 153.91463584939146 14.159244369607165 H 0.0 **** 0.06
27626 C 52.39388749329498 16.943774274142925 122.67159946022636 C 0.0 **** -0.24
27627 H 52.04445719859288 17.648565473643913 121.91838725137103 H 0.0 **** 0.06
27628 H 53.41091137532044 17.201957105986423 122.9674709149615 H 0.0 **** 0.06
27629 H 52.38093756598204 15.935130058373943 122.25957278999573 H 0.0 **** 0.06
27630 H 51.73936866195751 16.98877916248972 123.54284888342184 H 0.0 **** 0.06
27631 C 87.36433120523921 152.64413417728332 117.5778701658862 C 0.0 **** -0.24
27632 H 88.44999797525412 152.72816126386812 117.63143306529741 H 0.0 **** 0.06
27633 H 87.09210408947044 151.61993256531878 117.32009244193131 H 0.0 **** 0.06
27634 H 86.98457521669255 153.3247018745244 116.81473721250194 H 0.0 **** 0.06
27635 H 86.93180269677576 152.90354233262653 118.54442661503245 H 0.0 **** 0.06
27636 C 155.08953650694286 1.6519920874792717 128.1617309231318 C 0.0 **** -0.24
27637 H 155.71997661924297 1.2023771190612536 128.92818540283565 H 0.0 **** 0.06
27638 H 154.0975141662941 1.2006361299647779 128.19503792628146 H 0.0 **** 0.06
27639 H 155.53344145009686 1.482771899945817 127.18082941022746 H 0.0 **** 0.06
27640 H 155.0074032211611 2.723854463460242 128.34245732437478 H 0.0 **** 0.06
27641 C 1.8463020384270408 146.27395154665504 150.51846385066779 C 0.0 **** -0.24
27642 H 2.882720740440618 146.1246653790126 150.8223187347271 H 0.0 **** 0.06
27643 H 1.815517463250444 146.92142086623113 149.6416670262911 H 0.0 **** 0.06
27644 H 1.2929221890104827 146.7397008618399 151.33438369780472 H 0.0 **** 0.06
27645 H 1.3957939260310752 145.31093664956092 150.2769382365315 H 0.0 **** 0.06
27646 C 121.08440561682579 100.88351718826303 102.4552151786225 C 0.0 **** -0.24
27647 H 120.92844162533012 100.54222379013976 101.43121764731106 H 0.0 **** 0.06
27648 H 120.63969139044985 100.16889472569483 103.14786361199313 H 0.0 **** 0.06
27649 H 120.61440024848437 101.85845198328454 102.58812862515384 H 0.0 **** 0.06
27650 H 122.1532736490214 100.9651596508277 102.65214534046473 H 0.0 **** 0.06
27651 C 90.76661238223119 156.71819448914079 12.334639677392545 C 0.0 **** -0.24
27652 H 90.40596818312014 156.8986680556287 11.322558715035598 H 0.0 **** 0.06
27653 H 91.82550615488645 156.46302800860562 12.302924076984056 H 0.0 **** 0.06
27654 H 90.20760294754092 155.89346712298118 12.777989554188053 H 0.0 **** 0.06
27655 H 90.62555508263489 157.61572437911562 12.936543972098661 H 0.0 **** 0.06
27656 C 66.51274284918856 93.8423033449473 9.551018075879398 C 0.0 **** -0.24
27657 H 65.9446297102676 94.72285530961001 9.850698822194687 H 0.0 **** 0.06
27658 H 66.01799485403201 93.36116074251491 8.707100968327921 H 0.0 **** 0.06
27659 H 66.56823505360579 93.14429142676374 10.386289187243221 H 0.0 **** 0.06
27660 H 67.51957351099082 94.14174821105148 9.260011812631177 H 0.0 **** 0.06
27661 C 30.755113420750092 83.37839360395265 153.60151403373956 C 0.0 **** -0.24
27662 H 29.888793370286464 84.02165717449338 153.45033408709585 H 0.0 **** 0.06
27663 H 31.25621655509761 83.65702127289074 154.52905279618602 H 0.0 **** 0.06
27664 H 31.445665138191202 83.49510874034632 152.76573368827331 H 0.0 **** 0.06
27665 H 30.429915004285988 82.33980577765567 153.6623430844306 H 0.0 **** 0.06
27666 C 42.80306292616129 4.110344097658086 103.19447191915091 C 0.0 **** -0.24
27667 H 43.46009602895906 3.3581801200192274 102.75734868585971 H 0.0 **** 0.06
27668 H 41.808659449587765 3.686112640045856 103.33440855063208 H 0.0 **** 0.06
27669 H 42.741057907897726 4.970387393142261 102.52664424221317 H 0.0 **** 0.06
27670 H 43.202783073196784 4.425552336408302 104.15788221685864 H 0.0 **** 0.06
27671 C 157.3763276940834 40.8499620267325 78.78821803540454 C 0.0 **** -0.24
27672 H 158.21230136291948 41.186724355992 78.17630956841103 H 0.0 **** 0.06
27673 H 157.28113724537442 39.7668902756011 78.70774921703668 H 0.0 **** 0.06
27674 H 156.45745408487244 41.32274546983922 78.44125843242257 H 0.0 **** 0.06
27675 H 157.55494381906706 41.12229662235151 79.82937271330186 H 0.0 **** 0.06
27676 C 14.239309266450235 17.674598711633337 75.48118605028895 C 0.0 **** -0.24
27677 H 13.754109007875591 17.8044247079672 76.44880983553682 H 0.0 **** 0.06
27678 H 13.725024779688042 18.27842178429762 74.73348756777092 H 0.0 **** 0.06
27679 H 14.198309625637407 16.625015143752364 75.19243152365642 H 0.0 **** 0.06
27680 H 15.279974614251792 17.992003228860113 75.551690520397 H 0.0 **** 0.06
27681 C 70.82267005553416 66.39536815436657 161.6708688429942 C 0.0 **** -0.24
27682 H 70.0982431136157 66.84798167021177 162.3474842785849 H 0.0 **** 0.06
27683 H 71.77146546802646 66.261480037995 162.18984097556245 H 0.0 **** 0.06
27684 H 70.96850435921962 67.04546817139808 160.80786061760097 H 0.0 **** 0.06
27685 H 70.45069552600768 65.42629430453022 161.33661637583586 H 0.0 **** 0.06
27686 C 106.41528170645424 112.5343813433916 85.20552926484628 C 0.0 **** -0.24
27687 H 106.1103229820084 113.58044716049085 85.21703217624177 H 0.0 **** 0.06
27688 H 107.46620916448387 112.45947280372695 85.48961573920361 H 0.0 **** 0.06
27689 H 106.2805022615598 112.12769512273502 84.2026909381325 H 0.0 **** 0.06
27690 H 105.8069590599448 111.97057932679564 85.91219939714453 H 0.0 **** 0.06
27691 C 7.277796404981039 72.64049794552105 97.03518532613529 C 0.0 **** -0.24
27692 H 6.891867928415891 71.72246594757573 97.4765324339836 H 0.0 **** 0.06
27693 H 7.095478563162089 73.47434273966869 97.71407188486452 H 0.0 **** 0.06
27694 H 6.773455353943383 72.8274563955397 96.08737654551958 H 0.0 **** 0.06
27695 H 8.349206114015352 72.53934129835665 96.86376360356886 H 0.0 **** 0.06
27696 C 15.578639635949699 53.243480163898994 73.72797192247899 C 0.0 **** -0.24
27697 H 15.917822657434812 52.30910019252582 73.28015073090741 H 0.0 **** 0.06
27698 H 14.97323602145547 53.791893198683724 73.00631586769553 H 0.0 **** 0.06
27699 H 16.4434224843857 53.845194937246305 74.00901789109949 H 0.0 **** 0.06
27700 H 14.981939334872692 53.02664367034872 74.61388362001578 H 0.0 **** 0.06
27701 C 106.44154423142282 50.15759260255594 12.54107602926473 C 0.0 **** -0.24
27702 H 106.6768186360153 49.19289761676218 12.99059509837997 H 0.0 **** 0.06
27703 H 106.53926017170693 50.08680044105124 11.45793434400855 H 0.0 **** 0.06
27704 H 107.13051074880207 50.91275925343551 12.919919446067468 H 0.0 **** 0.06
27705 H 105.41883708971875 50.43727782157285 12.79567210691664 H 0.0 **** 0.06
27706 C 91.47492455557642 82.5461637917809 100.32174950442521 C 0.0 **** -0.24
27707 H 90.79439954444868 81.87739075738085 100.84819245085035 H 0.0 **** 0.06
27708 H 92.50393381265897 82.22914762109502 100.49548665007754 H 0.0 **** 0.06
27709 H 91.34181435762721 83.56345933031753 100.6905873209677 H 0.0 **** 0.06
27710 H 91.26027760912797 82.51613621239318 99.25424313827853 H 0.0 **** 0.06
27711 C 112.55696651508902 90.63471641474298 143.1650450381698 C 0.0 **** -0.24
27712 H 111.75022179190853 90.76451599080008 142.44421159489298 H 0.0 **** 0.06
27713 H 112.2384601867663 89.9441183983281 143.9455525257717 H 0.0 **** 0.06
27714 H 112.8048893244572 91.59842570572073 143.61055099360573 H 0.0 **** 0.06
27715 H 113.43428844739736 90.23247966645852 142.65912640696638 H 0.0 **** 0.06
27716 C 68.5226298439269 156.778850753707 83.23338627846965 C 0.0 **** -0.24
27717 H 67.65894642864453 157.17067452128828 82.69617314725674 H 0.0 **** 0.06
27718 H 68.66525007084593 155.72961591360703 82.97503269626017 H 0.0 **** 0.06
27719 H 68.35540128176319 156.87069059392556 84.30619608643795 H 0.0 **** 0.06
27720 H 69.41149611572706 157.3454774325885 82.95400867252755 H 0.0 **** 0.06
27721 C 151.15228120182576 60.09757483934651 19.232380468523445 C 0.0 **** -0.24
27722 H 151.20594572907515 61.164200478150576 19.449557147780723 H 0.0 **** 0.06
27723 H 151.72072101325602 59.881911007550485 18.32757598439929 H 0.0 **** 0.06
27724 H 150.11205989355273 59.80824881220157 19.086847307484078 H 0.0 **** 0.06
27725 H 151.57240839388834 59.535928955300136 20.068179470727785 H 0.0 **** 0.06
27726 C 58.71727267678948 70.03488753081778 52.4193460739848 C 0.0 **** -0.24
27727 H 58.77703719044793 69.06785748633101 52.91907696393247 H 0.0 **** 0.06
27728 H 58.03946497880345 69.96116751797999 51.56769062562586 H 0.0 **** 0.06
27729 H 59.70816861255865 70.32655243340106 52.07242005766261 H 0.0 **** 0.06
27730 H 58.34224229164832 70.78179758075602 53.11892268753718 H 0.0 **** 0.06
27731 C 18.02283408297353 161.04754880406648 60.65793008351733 C 0.0 **** -0.24
27732 H 18.831732678783283 161.71830449191293 60.368885597307894 H 0.0 **** 0.06
27733 H 17.48209315869437 160.72595753757088 59.766926034956896 H 0.0 **** 0.06
27734 H 17.340848804210054 161.5690727222457 61.32856090598011 H 0.0 **** 0.06
27735 H 18.43669741191951 160.1768282610457 61.16634893793946 H 0.0 **** 0.06
27736 C 124.15477593595037 139.14039699283177 115.50481007632652 C 0.0 **** -0.24
27737 H 124.99279253313063 138.67948635707015 116.0281602839319 H 0.0 **** 0.06
27738 H 123.53068751516827 139.67815673239613 116.21941696032584 H 0.0 **** 0.06
27739 H 123.56319106493794 138.36790830303428 115.01375976060007 H 0.0 **** 0.06
27740 H 124.53382017497933 139.83762633436723 114.75665928320637 H 0.0 **** 0.06
27741 C 17.385454531699878 49.63908051134602 18.05006158321396 C 0.0 **** -0.24
27742 H 18.41150855122268 50.006373910510206 18.025453256703827 H 0.0 **** 0.06
27743 H 16.696415696648614 50.481648976050906 17.990314391457446 H 0.0 **** 0.06
27744 H 17.216445919157707 49.09681700137918 18.98097256926559 H 0.0 **** 0.06
27745 H 17.218355855990552 48.97138525790963 17.205779112572145 H 0.0 **** 0.06
27746 C 48.38871404563534 126.22425442410079 78.1524501486652 C 0.0 **** -0.24
27747 H 48.30120547275487 127.23784032884706 77.76107855822244 H 0.0 **** 0.06
27748 H 48.7359236923007 125.55944396385775 77.36124702554878 H 0.0 **** 0.06
27749 H 47.41508221770509 125.88802509752594 78.50846664979741 H 0.0 **** 0.06
27750 H 49.101353847950264 126.21309474186833 78.97578165039016 H 0.0 **** 0.06
27751 C 86.77436900718737 70.45915325098652 112.78409757624993 C 0.0 **** -0.24
27752 H 87.7344499889265 70.42273547615915 113.2989131845307 H 0.0 **** 0.06
27753 H 86.93724972906651 70.38817855451697 111.70787856020473 H 0.0 **** 0.06
27754 H 86.2746633272204 71.39975195954992 113.01492683575864 H 0.0 **** 0.06
27755 H 86.15296883033517 69.62668171062234 113.11366365505353 H 0.0 **** 0.06
27756 C 92.46113147297584 154.12559374236 51.13989771386066 C 0.0 **** -0.24
27757 H 91.48677862480747 154.559106141408 50.91296952281647 H 0.0 **** 0.06
27758 H 92.32697849254754 153.22294109153742 51.7353731571928 H 0.0 **** 0.06
27759 H 93.05650690143597 154.84649655893818 51.699019386251905 H 0.0 **** 0.06
27760 H 92.97224120996448 153.8752789205522 50.20943211558907 H 0.0 **** 0.06
27761 C 3.5361665641388527 158.11309799762427 32.99299730023722 C 0.0 **** -0.24
27762 H 3.606597193490984 157.51139452840957 33.8985326580696 H 0.0 **** 0.06
27763 H 4.48175781560434 158.06764369480146 32.451968676111846 H 0.0 **** 0.06
27764 H 3.319743284082165 159.1477179711619 33.25973376171834 H 0.0 **** 0.06
27765 H 2.737481828412001 157.72652701873858 32.36058335166291 H 0.0 **** 0.06
27766 C 30.433673777406455 127.44253503148201 15.35226430534604 C 0.0 **** -0.24
27767 H 30.464475986564935 128.41241736866678 15.849746327350175 H 0.0 **** 0.06
27768 H 30.88315185473408 126.68900258807986 15.999053430899409 H 0.0 **** 0.06
27769 H 30.989665359232504 127.49764021916445 14.415421902649769 H 0.0 **** 0.06
27770 H 29.398555067669292 127.17324020067889 15.144896580632292 H 0.0 **** 0.06
27771 C 118.34403436872213 139.14636445635648 138.69821529728486 C 0.0 **** -0.24
27772 H 117.47384182619032 138.68730278359902 138.23091975676735 H 0.0 **** 0.06
27773 H 118.39985262913223 140.19663062954447 138.41012646481803 H 0.0 **** 0.06
27774 H 119.24730727794218 138.6305860158708 138.37086298327898 H 0.0 **** 0.06
27775 H 118.2566922561297 139.07217339176782 139.78296501445448 H 0.0 **** 0.06
27776 C 142.2194109176396 94.8297988326708 41.55837855292798 C 0.0 **** -0.24
27777 H 142.51429841522614 95.83671191902661 41.85440602994035 H 0.0 **** 0.06
27778 H 142.34238695031723 94.15159307941849 42.40326359371019 H 0.0 **** 0.06
27779 H 142.84562605420163 94.49660701101214 40.72996639182219 H 0.0 **** 0.06
27780 H 141.17532367567517 94.83533537055888 41.244933114746175 H 0.0 **** 0.06
27781 C 73.55073746901994 31.117142784729367 136.28929761742347 C 0.0 **** -0.24
27782 H 72.59921379215943 31.207908505817898 135.76595631899352 H 0.0 **** 0.06
27783 H 73.65342182605771 31.93726082674158 136.9996159710151 H 0.0 **** 0.06
27784 H 74.36656298822221 31.15583906454441 135.5685250248739 H 0.0 **** 0.06
27785 H 73.58215073939998 30.167234427712515 136.8225181736451 H 0.0 **** 0.06
27786 C 160.89448206555198 34.188887458332175 60.23599547635811 C 0.0 **** -0.24
27787 H 161.95251629570595 33.92653364716324 60.24910698376095 H 0.0 **** 0.06
27788 H 160.61658476158073 34.52457922644129 59.23610646791056 H 0.0 **** 0.06
27789 H 160.7094715682074 34.989052598994704 60.9526067497242 H 0.0 **** 0.06
27790 H 160.2999070427503 33.31598368261888 60.50500549254406 H 0.0 **** 0.06
27791 C 73.7108760910547 41.9619449928052 58.88268552943556 C 0.0 **** -0.24
27792 H 73.4595536422297 42.22318647474759 57.85457280190724 H 0.0 **** 0.06
27793 H 72.98412307111074 42.41026469751563 59.55972122217841 H 0.0 **** 0.06
27794 H 74.70717327066438 42.334170239467255 59.11993462169848 H 0.0 **** 0.06
27795 H 73.69247233855675 40.87737337510063 58.995413526336606 H 0.0 **** 0.06
27796 C 4.0367072417294025 102.97440444239294 143.63695481800283 C 0.0 **** -0.24
27797 H 2.9773742749865733 102.8127786924847 143.43459703257054 H 0.0 **** 0.06
27798 H 4.14483139186666 103.67667596551297 144.4637690316092 H 0.0 **** 0.06
27799 H 4.5188110531925645 103.38085373058271 142.748725286307 H 0.0 **** 0.06
27800 H 4.503808358718771 102.02573860435143 143.9032808581391 H 0.0 **** 0.06
27801 C 146.865683174133 91.3600221128622 73.87346303407872 C 0.0 **** -0.24
27802 H 146.86102120437934 91.30407650636278 74.96203329460624 H 0.0 **** 0.06
27803 H 147.8486173488214 91.07575651656259 73.49927684902423 H 0.0 **** 0.06
27804 H 146.63837780702616 92.37934314466492 73.56149227054541 H 0.0 **** 0.06
27805 H 146.11282418620925 90.6820597425729 73.47210009711671 H 0.0 **** 0.06
27806 C 118.04885437711599 13.036508559838744 45.53943150114294 C 0.0 **** -0.24
27807 H 118.16647670454151 13.821571210584963 44.794033346983866 H 0.0 **** 0.06
27808 H 117.45403431138843 13.411075275094355 46.37216657590611 H 0.0 **** 0.06
27809 H 119.03067988838302 12.731058479043917 45.90267907994961 H 0.0 **** 0.06
27810 H 117.5461190765721 12.180022885022233 45.089162258333175 H 0.0 **** 0.06
27811 C 51.9278582830832 101.7661020954036 104.01199015144206 C 0.0 **** -0.24
27812 H 51.377363461635696 102.59476549809901 103.56677304958859 H 0.0 **** 0.06
27813 H 51.31685062898441 101.29998568830302 104.7854169535023 H 0.0 **** 0.06
27814 H 52.85127202687829 102.13896463438064 104.45394309996186 H 0.0 **** 0.06
27815 H 52.162713790460884 101.0309023072744 103.24253644457522 H 0.0 **** 0.06
27816 C 55.117366788960965 58.6480493103241 109.3436538864668 C 0.0 **** -0.24
27817 H 54.97323408744599 58.49827078714799 110.41421310974826 H 0.0 **** 0.06
27818 H 56.11549341845411 58.31451722568383 109.06095189610096 H 0.0 **** 0.06
27819 H 55.007224079520654 59.70646533217359 109.10782564219392 H 0.0 **** 0.06
27820 H 54.371916368264976 58.07404580580453 108.79273327446668 H 0.0 **** 0.06
27821 C 115.7807883846242 156.3552001307319 29.428004948521632 C 0.0 **** -0.24
27822 H 115.98508222004591 157.38376289846434 29.72539949809289 H 0.0 **** 0.06
27823 H 114.73031579162102 156.25813154220543 29.152287880662698 H 0.0 **** 0.06
27824 H 116.0016280121576 155.68708289161313 30.26081590450348 H 0.0 **** 0.06
27825 H 116.40659624175328 156.09220532987007 28.57566928007587 H 0.0 **** 0.06
27826 C 145.29492462272492 48.4220052062858 35.004283706560585 C 0.0 **** -0.24
27827 H 144.86632466857301 48.970857119855054 34.16546040811036 H 0.0 **** 0.06
27828 H 144.49223861736584 48.03076943874953 35.6299382665114 H 0.0 **** 0.06
27829 H 145.92235345742444 49.089860927459995 35.592223811153616 H 0.0 **** 0.06
27830 H 145.89649435528355 47.59514252436577 34.627097001265625 H 0.0 **** 0.06
27831 C 86.25169027093176 38.15722252191949 31.001884196739013 C 0.0 **** -0.24
27832 H 85.44964722206358 38.84400111256781 30.72911688115562 H 0.0 **** 0.06
27833 H 87.1695396755517 38.45275355850123 30.493023949169498 H 0.0 **** 0.06
27834 H 85.98044293177115 37.14498571440785 30.70299731978946 H 0.0 **** 0.06
27835 H 86.40590643640982 38.1904194412528 32.0802056615496 H 0.0 **** 0.06
27836 C 56.96914267287127 156.22695963876015 51.99289296888395 C 0.0 **** -0.24
27837 H 56.435641575798684 156.76962194788854 52.772615369816776 H 0.0 **** 0.06
27838 H 57.831204374438016 156.8104906586858 51.67025847474042 H 0.0 **** 0.06
27839 H 56.30428738481493 156.06118660127686 51.14502941237498 H 0.0 **** 0.06
27840 H 57.305190189468476 155.26720029559084 52.384377198791356 H 0.0 **** 0.06
27841 C 112.17822700633008 105.35160527617876 23.834070282013236 C 0.0 **** -0.24
27842 H 113.0702017717046 105.71425893043045 23.32241001780453 H 0.0 **** 0.06
27843 H 112.42468109758181 105.117650058393 24.870504187381066 H 0.0 **** 0.06
27844 H 111.81296761964893 104.45370814888201 23.335626519420657 H 0.0 **** 0.06
27845 H 111.40635184618088 106.12060472718048 23.808274375357698 H 0.0 **** 0.06
27846 C 96.20883290443747 136.6956073274515 25.512159130002004 C 0.0 **** -0.24
27847 H 97.1629657546348 136.42225925466693 25.062465715146026 H 0.0 **** 0.06
27848 H 96.1691692769346 137.77632549768424 25.64876400405423 H 0.0 **** 0.06
27849 H 96.10798106263773 136.20247340629754 26.478791266072328 H 0.0 **** 0.06
27850 H 95.39541979717228 136.3819267770792 24.85698776243597 H 0.0 **** 0.06
27851 C 74.70840471265848 3.9092390133120887 111.96503576009309 C 0.0 **** -0.24
27852 H 74.77912998942958 2.957923047449185 111.43833973445453 H 0.0 **** 0.06
27853 H 74.42481734887491 4.6932768292354865 111.26297895059878 H 0.0 **** 0.06
27854 H 75.67287300698996 4.150993332396979 112.41085365238087 H 0.0 **** 0.06
27855 H 73.95506678530919 3.833995147205002 112.74915895291736 H 0.0 **** 0.06
27856 C 54.434850197677406 27.587367298356725 3.0178863619592278 C 0.0 **** -0.24
27857 H 53.415556886074 27.210398342123142 2.9373358170423955 H 0.0 **** 0.06
27858 H 54.83577694226989 27.764570031179744 2.0200538188305472 H 0.0 **** 0.06
27859 H 55.054051347978316 26.852486249527686 3.533707725023703 H 0.0 **** 0.06
27860 H 54.4336167527909 28.520349632907426 3.5807107320615046 H 0.0 **** 0.06
27861 C 23.57905877088666 81.59918472376819 57.52944244513408 C 0.0 **** -0.24
27862 H 22.680296591533562 81.86659568459822 58.086050753425155 H 0.0 **** 0.06
27863 H 24.3926230183109 82.26962088015793 57.80866183670287 H 0.0 **** 0.06
27864 H 23.384607202530503 81.6879649603818 56.461000828728714 H 0.0 **** 0.06
27865 H 23.857767730459784 80.5717852624283 57.76393236382957 H 0.0 **** 0.06
27866 C 37.131575400437725 11.26914299259684 149.35680558896496 C 0.0 **** -0.24
27867 H 36.24682107849719 11.876262647056564 149.16395231517967 H 0.0 **** 0.06
27868 H 37.80108229617633 11.805383576009035 150.02937931025988 H 0.0 **** 0.06
27869 H 37.645697798801734 11.066433215320899 148.4164993588076 H 0.0 **** 0.06
27870 H 36.83241590631155 10.327539422040445 149.81728812997764 H 0.0 **** 0.06
27871 C 21.634502283846196 128.5877280674896 76.74533648877613 C 0.0 **** -0.24
27872 H 22.49217777347628 127.91662190054944 76.71134981155751 H 0.0 **** 0.06
27873 H 21.441382860357976 128.98120972560594 75.74677404028228 H 0.0 **** 0.06
27874 H 21.845776094613242 129.412244031973 77.42623711052755 H 0.0 **** 0.06
27875 H 20.75945981162301 128.0420090750036 77.0970583707142 H 0.0 **** 0.06
27876 C 111.11340058678013 107.24432028890834 26.357773716214325 C 0.0 **** -0.24
27877 H 110.7872558549484 108.00663531057535 27.064807135565104 H 0.0 **** 0.06
27878 H 110.68059075709971 106.28313424775803 26.636237216395187 H 0.0 **** 0.06
27879 H 112.20098286952907 107.17236647742595 26.377580086547226 H 0.0 **** 0.06
27880 H 110.78501135958277 107.51492544026306 25.354682893832518 H 0.0 **** 0.06
27881 C 143.39093096977177 143.16663365859216 37.88108811625267 C 0.0 **** -0.24
27882 H 144.04418753269712 142.46081052641512 38.3950593751828 H 0.0 **** 0.06
27883 H 143.06793640375685 142.73688489100311 36.932614406353196 H 0.0 **** 0.06
27884 H 143.93350993903607 144.09361161713608 37.69415016344914 H 0.0 **** 0.06
27885 H 142.51969875897007 143.37348220624278 38.501923798180485 H 0.0 **** 0.06
27886 C 45.990000601147116 126.45085773216803 87.37514610160429 C 0.0 **** -0.24
27887 H 46.3810585667146 127.46194889445042 87.48852239778626 H 0.0 **** 0.06
27888 H 46.24730317654321 125.86073594484441 88.25553951374894 H 0.0 **** 0.06
27889 H 46.425314493742874 125.99044039327393 86.48791469900527 H 0.0 **** 0.06
27890 H 44.905978284347384 126.49113674711259 87.26817378936619 H 0.0 **** 0.06
27891 C 31.75496400037359 75.49790050531482 6.387411571625705 C 0.0 **** -0.24
27892 H 31.880957572168263 74.48335575526426 6.010794533862793 H 0.0 **** 0.06
27893 H 31.780027332348325 76.20047359068309 5.554321090173886 H 0.0 **** 0.06
27894 H 32.56219375491919 75.72933877107943 7.082731156451928 H 0.0 **** 0.06
27895 H 30.797668055109824 75.5775631841033 6.902309794625012 H 0.0 **** 0.06
27896 C 16.670844237719876 47.797562209184136 57.337041289777446 C 0.0 **** -0.24
27897 H 15.60367612928539 47.980009728822466 57.20592674536442 H 0.0 **** 0.06
27898 H 16.813521730258827 46.914023722171706 57.96058501908216 H 0.0 **** 0.06
27899 H 17.12974421353678 48.66094615787287 57.81940406107803 H 0.0 **** 0.06
27900 H 17.133344477408087 47.635406844128184 56.364354306200795 H 0.0 **** 0.06
27901 C 157.33938821166205 27.700788016006314 39.888645565141246 C 0.0 **** -0.24
27902 H 156.35150316100172 27.39276716948079 40.230341517745245 H 0.0 **** 0.06
27903 H 157.97724908775717 26.822773772270473 39.78270514078153 H 0.0 **** 0.06
27904 H 157.7779954677915 28.38365873728278 40.615631178120495 H 0.0 **** 0.06
27905 H 157.2494823940327 28.204207419148865 38.925473857731774 H 0.0 **** 0.06
27906 C 109.97732158481901 115.62608558553194 59.21126880548137 C 0.0 **** -0.24
27907 H 109.75899799572213 115.18113911799037 60.18154880460588 H 0.0 **** 0.06
27908 H 109.25853195084838 115.2649041499514 58.47546563811193 H 0.0 **** 0.06
27909 H 110.98463294105883 115.3466508986672 58.90150605480791 H 0.0 **** 0.06
27910 H 109.90849389911932 116.71174364078297 59.285101149211584 H 0.0 **** 0.06
27911 C 70.73549174667218 89.31665878863859 61.937003277543425 C 0.0 **** -0.24
27912 H 69.91115997160739 89.13955270971955 62.62813599342965 H 0.0 **** 0.06
27913 H 70.45918776921872 88.9612062735394 60.944900237050405 H 0.0 **** 0.06
27914 H 71.6200409538468 88.78112116734475 62.28271707767294 H 0.0 **** 0.06
27915 H 70.95088520504424 90.38399830761023 61.89556848805293 H 0.0 **** 0.06
27916 C 141.02363570799994 77.22300622555645 135.9094531524934 C 0.0 **** -0.24
27917 H 140.9538610884871 76.33705482947653 136.54164815627462 H 0.0 **** 0.06
27918 H 140.43817622906963 78.02990392933788 136.35034560424774 H 0.0 **** 0.06
27919 H 140.63581094168032 76.99216782298379 134.91798081476827 H 0.0 **** 0.06
27920 H 142.06646900218269 77.5308626542913 135.8300301690116 H 0.0 **** 0.06
27921 C 128.68098018804199 91.55733599409979 132.82169539904137 C 0.0 **** -0.24
27922 H 128.64864896837474 92.57549555374685 132.4334433298232 H 0.0 **** 0.06
27923 H 129.71898211199084 91.24247902323712 132.92890523497834 H 0.0 **** 0.06
27924 H 128.1671958083516 90.88951075826219 132.12974168565273 H 0.0 **** 0.06
27925 H 128.1882671671791 91.52372578939087 133.79333838162754 H 0.0 **** 0.06
27926 C 126.9817682417646 162.9999835564845 31.676705890017367 C 0.0 **** -0.24
27927 H 126.36688640370198 163.82420815757268 32.03598981682642 H 0.0 **** 0.06
27928 H 127.44029834350385 163.27584175582928 30.726640480791296 H 0.0 **** 0.06
27929 H 126.35919413768528 162.11612463771553 31.53567479260549 H 0.0 **** 0.06
27930 H 127.76175242270926 162.7826859643203 32.406867042597185 H 0.0 **** 0.06
27931 C 29.419415450068264 129.49054921258156 24.70225283613081 C 0.0 **** -0.24
27932 H 30.480847682249802 129.25150420036707 24.63653408340764 H 0.0 **** 0.06
27933 H 28.94395444057153 129.30070599767214 23.739656733917485 H 0.0 **** 0.06
27934 H 29.29869724006774 130.54053339214227 24.966900075754012 H 0.0 **** 0.06
27935 H 28.95417624922038 128.8674723648829 25.466957762436806 H 0.0 **** 0.06
27936 C 42.559876365056084 60.88506319494449 96.56055918926728 C 0.0 **** -0.24
27937 H 43.019916890020625 60.165288983274294 97.2370661245842 H 0.0 **** 0.06
27938 H 43.296319593123144 61.21978954541699 95.8303164322067 H 0.0 **** 0.06
27939 H 42.19738478159246 61.739753376100964 97.13133356613162 H 0.0 **** 0.06
27940 H 41.72409515165134 60.41305393381788 96.04396468738491 H 0.0 **** 0.06
27941 C 135.1667568387953 128.54682575173808 160.95439820279444 C 0.0 **** -0.24
27942 H 135.63750573350978 127.90343734094355 160.20965613334025 H 0.0 **** 0.06
27943 H 134.44160510881557 127.96837987181573 161.52733206144939 H 0.0 **** 0.06
27944 H 134.66105427323492 129.37102475123078 160.45340048021777 H 0.0 **** 0.06
27945 H 135.9296863353273 128.9420724124127 161.6253822029662 H 0.0 **** 0.06
27946 C 144.76484019667663 55.92407099657453 36.525385049520224 C 0.0 **** -0.24
27947 H 144.4410181527897 56.891740753204715 36.910603725445185 H 0.0 **** 0.06
27948 H 145.08993357458218 56.036975893157376 35.490263467079956 H 0.0 **** 0.06
27949 H 143.93456535891548 55.219594815866174 36.570582924901714 H 0.0 **** 0.06
27950 H 145.59228596284652 55.551084397213515 37.128715263679595 H 0.0 **** 0.06
27951 C 104.91370720972282 61.92659310210509 97.92409866127824 C 0.0 **** -0.24
27952 H 104.79088738595223 61.00013610311868 97.36368760082166 H 0.0 **** 0.06
27953 H 105.89439997770572 61.93561437681852 98.40036978636297 H 0.0 **** 0.06
27954 H 104.13792357675504 61.993380892002236 98.68747670023282 H 0.0 **** 0.06
27955 H 104.82956499488816 62.775066934716534 97.2451037448468 H 0.0 **** 0.06
27956 C 4.075674735505913 132.73144544543302 24.66239092402614 C 0.0 **** -0.24
27957 H 4.842756917754315 132.06064107517906 25.04895304068132 H 0.0 **** 0.06
27958 H 3.9668665497776487 133.5847993911252 25.332431747633898 H 0.0 **** 0.06
27959 H 3.1272563844589456 132.1987305687967 24.594912486893293 H 0.0 **** 0.06
27960 H 4.367242665603243 133.08184571460558 23.67155809611824 H 0.0 **** 0.06
27961 C 3.1417142913983227 32.6709721838335 34.60663799796578 C 0.0 **** -0.24
27962 H 3.0264265845356206 32.830435454313346 33.5349696544572 H 0.0 **** 0.06
27963 H 2.1715297188922307 32.43548116953485 35.04455436545217 H 0.0 **** 0.06
27964 H 3.539167051126981 33.57498112061745 35.06842151028343 H 0.0 **** 0.06
27965 H 3.8288762058870134 31.842490479525537 34.77848800501218 H 0.0 **** 0.06
27966 C 61.90266974486073 148.4151075618276 98.88025945231368 C 0.0 **** -0.24
27967 H 61.410308490638556 149.33733807656552 98.57117671297058 H 0.0 **** 0.06
27968 H 62.716532435384835 148.18966480104905 98.19158397036298 H 0.0 **** 0.06
27969 H 61.18225665523633 147.59872192030548 98.87296267150242 H 0.0 **** 0.06
27970 H 62.301696825080484 148.53838496859132 99.88764863275406 H 0.0 **** 0.06
27971 C 111.33621921264839 71.54320891043515 71.53816698987777 C 0.0 **** -0.24
27972 H 110.62330222776677 71.30570878518404 70.74843543672665 H 0.0 **** 0.06
27973 H 110.90619380776647 72.29702008992315 72.19915244484207 H 0.0 **** 0.06
27974 H 112.25416986816916 71.92961144363763 71.09447277819788 H 0.0 **** 0.06
27975 H 111.55920773592081 70.64306508978834 72.10998780283637 H 0.0 **** 0.06
27976 C 3.0220644890371204 16.03584452659448 103.14390032164039 C 0.0 **** -0.24
27977 H 2.494829281012244 15.188219653305552 103.58136798567756 H 0.0 **** 0.06
27978 H 2.5610417482547234 16.298965852716144 102.19253813047123 H 0.0 **** 0.06
27979 H 4.066760947155785 15.76848243684109 102.98058552499253 H 0.0 **** 0.06
27980 H 2.966809907910573 16.886866904819776 103.82353605640495 H 0.0 **** 0.06
27981 C 112.2355321560367 62.67287613844776 10.654128457578224 C 0.0 **** -0.24
27982 H 112.49056107102365 62.73329878317003 11.71197305915075 H 0.0 **** 0.06
27983 H 112.79562947782858 61.85921658539904 10.191744394862894 H 0.0 **** 0.06
27984 H 112.4891238032406 63.612587005578135 10.16491012569412 H 0.0 **** 0.06
27985 H 111.1674812561086 62.48460065945386 10.548442827639917 H 0.0 **** 0.06
27986 C 100.07279408771038 9.516776446209015 145.87264607013395 C 0.0 **** -0.24
27987 H 100.45689564076602 8.61782187380183 146.35388665835643 H 0.0 **** 0.06
27988 H 99.83485753170544 10.26184720749442 146.63278070002733 H 0.0 **** 0.06
27989 H 99.1729162114969 9.271108016987782 145.308757174389 H 0.0 **** 0.06
27990 H 100.82866994660557 9.91713668913765 145.1959775690016 H 0.0 **** 0.06
27991 C 125.55924259346256 29.533461478422197 152.5981376201706 C 0.0 **** -0.24
27992 H 125.76629201645687 30.151603498987043 153.47170492402037 H 0.0 **** 0.06
27993 H 126.00108023771773 28.54657607066264 152.7397800498675 H 0.0 **** 0.06
27994 H 125.99025207982544 30.000024713834534 151.71256469065528 H 0.0 **** 0.06
27995 H 124.4819688691432 29.434753238015276 152.46965485142366 H 0.0 **** 0.06
27996 C 149.3155345754093 109.36764405363846 72.06633722096672 C 0.0 **** -0.24
27997 H 148.63009160247623 108.9568688404938 72.80708851947617 H 0.0 **** 0.06
27998 H 149.40433015439856 110.44444878461564 72.21131577714456 H 0.0 **** 0.06
27999 H 148.93426716525866 109.16511482740748 71.06557754733277 H 0.0 **** 0.06
28000 H 150.29571345541257 108.9038576516468 72.18225714226932 H 0.0 **** 0.06
28001 C 14.943875130596979 133.7468270165997 136.00833219077396 C 0.0 **** -0.24
28002 H 13.905002720282283 133.83209016765773 136.3237225877865 H 0.0 **** 0.06
28003 H 14.98917934459945 133.25035002044632 135.03859614350586 H 0.0 **** 0.06
28004 H 15.500203641934263 133.1627012922128 136.74110266510445 H 0.0 **** 0.06
28005 H 15.38258998306577 134.74101429434265 135.92832740287292 H 0.0 **** 0.06
28006 C 33.34961554198185 26.89419779150564 126.99950043836222 C 0.0 **** -0.24
28007 H 32.44892827127814 27.214420596204945 126.47535478692166 H 0.0 **** 0.06
28008 H 34.017586035465385 27.746731164018435 127.12546927396409 H 0.0 **** 0.06
28009 H 33.852130293660224 26.121037688646496 126.41932356929169 H 0.0 **** 0.06
28010 H 33.078669690270814 26.496752579596865 127.97761674248275 H 0.0 **** 0.06
28011 C 110.82194567624845 56.55811654092233 103.59317410299096 C 0.0 **** -0.24
28012 H 111.51404561019152 57.37690898641483 103.78684504357827 H 0.0 **** 0.06
28013 H 111.11966751130672 56.038235770709065 102.68225392683075 H 0.0 **** 0.06
28014 H 109.81448351089102 56.956001694451004 103.47214005388054 H 0.0 **** 0.06
28015 H 110.83958607260456 55.86131971211461 104.43145738767447 H 0.0 **** 0.06
28016 C 3.9413354437757846 88.6739595219994 8.442539256198017 C 0.0 **** -0.24
28017 H 3.0578721642000346 89.2917741446987 8.601147449852874 H 0.0 **** 0.06
28018 H 3.6565760754710936 87.7592734215398 7.922503394049841 H 0.0 **** 0.06
28019 H 4.385081142617878 88.42091898844895 9.405826400290834 H 0.0 **** 0.06
28020 H 4.665724767374229 89.22338946145437 7.842006426319102 H 0.0 **** 0.06
28021 C 82.58278231487297 24.338046297039853 74.98959149148438 C 0.0 **** -0.24
28022 H 81.89900845725462 24.01214851429495 75.77266988380141 H 0.0 **** 0.06
28023 H 83.4024766453351 23.62403920343104 74.90304113735577 H 0.0 **** 0.06
28024 H 82.98103913810897 25.321051595787537 75.24123796028947 H 0.0 **** 0.06
28025 H 82.04787837346181 24.39533185113453 74.04084861938573 H 0.0 **** 0.06
28026 C 85.45100036508643 67.44114899779213 62.11639641826832 C 0.0 **** -0.24
28027 H 85.15591493805277 66.7672335614065 61.31240486526019 H 0.0 **** 0.06
28028 H 84.62706433951757 67.54415183211057 62.82345139291658 H 0.0 **** 0.06
28029 H 85.69683968491398 68.4175915154121 61.70086802285141 H 0.0 **** 0.06
28030 H 86.3222802616221 67.03415166316994 62.62933926194796 H 0.0 **** 0.06
28031 C 125.85818602158275 152.1382231629301 119.97884633396967 C 0.0 **** -0.24
28032 H 125.93432585320224 151.4383517504201 119.14759634607265 H 0.0 **** 0.06
28033 H 126.83350253345833 152.24445230677858 120.45455837764644 H 0.0 **** 0.06
28034 H 125.13810740741974 151.76343195287237 120.70524026962829 H 0.0 **** 0.06
28035 H 125.52817186831408 153.10853008652987 119.60719595869489 H 0.0 **** 0.06
28036 C 92.82939246148607 11.395637230931925 81.8341567724853 C 0.0 **** -0.24
28037 H 93.86996653582804 11.592026188929566 81.57664984843274 H 0.0 **** 0.06
28038 H 92.19379761133814 12.156696891616576 81.37971504489894 H 0.0 **** 0.06
28039 H 92.71084561650571 11.422109436164874 82.91667544599318 H 0.0 **** 0.06
28040 H 92.54243265056448 10.412230430804868 81.46067850940227 H 0.0 **** 0.06
28041 C 82.28997199102693 131.23119171230232 32.399080715955876 C 0.0 **** -0.24
28042 H 82.0645773725359 131.79293678530357 31.493274689879854 H 0.0 **** 0.06
28043 H 83.30953061815032 130.84804332169753 32.34442352624791 H 0.0 **** 0.06
28044 H 81.59294872646716 130.39830572268875 32.492001946409516 H 0.0 **** 0.06
28045 H 82.19345434987099 131.88471235433346 33.2656122771439 H 0.0 **** 0.06
28046 C 45.161318395475874 63.392241344764045 93.82339342510562 C 0.0 **** -0.24
28047 H 44.62638492543057 64.33644762533203 93.72236109478024 H 0.0 **** 0.06
28048 H 45.93929295260344 63.49530641885897 94.5794483280535 H 0.0 **** 0.06
28049 H 45.614168028589674 63.12765667517783 92.8679270389635 H 0.0 **** 0.06
28050 H 44.46279462478252 62.610549654051994 94.12355925889051 H 0.0 **** 0.06
28051 C 104.21858142221788 160.8469253441404 59.910459985359026 C 0.0 **** -0.24
28052 H 103.5221087411202 161.37208012521415 60.5645235397394 H 0.0 **** 0.06
28053 H 104.86648995966328 161.57100761596342 59.41448891163719 H 0.0 **** 0.06
28054 H 103.66155388008357 160.28492457453783 59.16186446010991 H 0.0 **** 0.06
28055 H 104.82577215431937 160.16261211376462 60.50266574397128 H 0.0 **** 0.06
28056 C 113.45436772918916 107.74873623348117 56.672830171197006 C 0.0 **** -0.24
28057 H 114.30472741537858 108.16371302123218 57.21491093808629 H 0.0 **** 0.06
28058 H 112.54867435960153 107.87356327137707 57.266267265268425 H 0.0 **** 0.06
28059 H 113.62540667684436 106.68821364042645 56.48821878976969 H 0.0 **** 0.06
28060 H 113.34236926394894 108.26982363875885 55.72227606886145 H 0.0 **** 0.06
28061 C 134.14840427433103 58.33323918639235 108.79090341277328 C 0.0 **** -0.24
28062 H 134.7226050707544 57.805620971990336 109.55265949506125 H 0.0 **** 0.06
28063 H 133.33764181517142 57.69420536860396 108.43961592274724 H 0.0 **** 0.06
28064 H 134.8006072312727 58.58656310099602 107.95559261521484 H 0.0 **** 0.06
28065 H 133.7327039680024 59.24613811784077 109.21742264143529 H 0.0 **** 0.06
28066 C 108.2944187078831 12.856725024645506 58.299213025770015 C 0.0 **** -0.24
28067 H 107.45233853686852 12.348520508904677 58.76857322713505 H 0.0 **** 0.06
28068 H 109.05953343064465 13.058314957566743 59.04882479961074 H 0.0 **** 0.06
28069 H 107.95415894170094 13.796735066460457 57.86452431394537 H 0.0 **** 0.06
28070 H 108.70947283975443 12.223501519824651 57.516050928452756 H 0.0 **** 0.06
28071 C 116.72162833383766 162.14927554845798 124.21461332440597 C 0.0 **** -0.24
28072 H 116.01569762121545 162.73035753422494 124.80817664624266 H 0.0 **** 0.06
28073 H 116.83889340743656 161.15949878745838 124.65654515199577 H 0.0 **** 0.06
28074 H 117.6857571294837 162.6576927388508 124.19801549218835 H 0.0 **** 0.06
28075 H 116.34531701103873 162.05083362708805 123.19651665714002 H 0.0 **** 0.06
28076 C 49.37976056410655 161.0380607854199 14.181731096891014 C 0.0 **** -0.24
28077 H 48.505429376189966 160.60318073107274 13.696096246667231 H 0.0 **** 0.06
28078 H 49.13223607143276 161.29251612064988 15.212706842820992 H 0.0 **** 0.06
28079 H 49.681733155645915 161.93781253022618 13.64664963027488 H 0.0 **** 0.06
28080 H 50.19738654945208 160.31632342815692 14.170424697540646 H 0.0 **** 0.06
28081 C 55.399630672941825 121.50376830721294 78.87069333511806 C 0.0 **** -0.24
28082 H 56.31049658547005 120.90798581773407 78.80694862177495 H 0.0 **** 0.06
28083 H 55.517006190593904 122.2641520964122 79.64267800557059 H 0.0 **** 0.06
28084 H 54.55933038800258 120.85643491554558 79.12296459329826 H 0.0 **** 0.06
28085 H 55.212373095249276 121.98575607304298 77.91117145010622 H 0.0 **** 0.06
28086 C 42.825569031056716 92.17178335975248 73.5362962855613 C 0.0 **** -0.24
28087 H 41.78444386040405 92.4569906925614 73.68380893025137 H 0.0 **** 0.06
28088 H 43.384677372332305 93.02357739120072 73.14915594340998 H 0.0 **** 0.06
28089 H 42.87915879723151 91.34733583155553 72.82396537690917 H 0.0 **** 0.06
28090 H 43.25436720975415 91.85760331159541 74.48778820329372 H 0.0 **** 0.06
28091 C 155.28400728105964 41.781870105265895 2.988084035167759 C 0.0 **** -0.24
28092 H 154.93996806219687 42.564506458356334 3.664340801301819 H 0.0 **** 0.06
28093 H 156.11978392473947 42.1548581994074 2.396734632261115 H 0.0 **** 0.06
28094 H 154.46929363294265 41.49193112508701 2.325053949106774 H 0.0 **** 0.06
28095 H 155.60460974809274 40.91661175860631 3.5682520333263597 H 0.0 **** 0.06
28096 C 154.26261282932774 12.530857373857827 115.29655054771678 C 0.0 **** -0.24
28097 H 154.80403897842336 12.296280529913602 114.37939989354919 H 0.0 **** 0.06
28098 H 154.76982040611534 12.070424848674406 116.14475054640684 H 0.0 **** 0.06
28099 H 153.24642156446043 12.144889466566816 115.22677308111739 H 0.0 **** 0.06
28100 H 154.2324809414214 13.611496386437075 115.4336827152448 H 0.0 **** 0.06
28101 C 148.55951355141622 127.75608380078657 143.04742552803305 C 0.0 **** -0.24
28102 H 149.23881902597242 127.70548989821921 142.1969050027062 H 0.0 **** 0.06
28103 H 147.5524991778541 127.4939179443854 142.72461918018922 H 0.0 **** 0.06
28104 H 148.5594275942678 128.76884165159325 143.4517204887414 H 0.0 **** 0.06
28105 H 148.88824135541165 127.05784661870476 143.81662751658754 H 0.0 **** 0.06
28106 C 121.42876295211565 20.435729932840495 0.5773162884937904 C 0.0 **** -0.24
28107 H 121.38615196616453 21.298885068412666 -0.08700319327112993 H 0.0 **** 0.06
28108 H 121.91816236271353 19.607554826697218 0.06473842419154607 H 0.0 **** 0.06
28109 H 120.41625475455834 20.142783183028968 0.8572274260808967 H 0.0 **** 0.06
28110 H 121.99340100544856 20.693456321579518 1.4729712516934796 H 0.0 **** 0.06
28111 C 23.684767458336808 46.30047796611383 154.43031976301833 C 0.0 **** -0.24
28112 H 23.04472226238738 46.180454772470426 155.3046380391161 H 0.0 **** 0.06
28113 H 24.664855413893605 45.8712513625056 154.63709974717787 H 0.0 **** 0.06
28114 H 23.79207699000125 47.36018489772481 154.20111307233364 H 0.0 **** 0.06
28115 H 23.2355551614898 45.788079743235286 153.57930728164456 H 0.0 **** 0.06
28116 C 41.1178035031801 2.465310011521211 139.51554865241465 C 0.0 **** -0.24
28117 H 40.28535558266819 2.2471492726602094 138.8468602379325 H 0.0 **** 0.06
28118 H 41.340241819744435 3.532240272446245 139.48408612100783 H 0.0 **** 0.06
28119 H 41.994649927012304 1.901087304039379 139.1999969112131 H 0.0 **** 0.06
28120 H 40.850040380651365 2.1804234992123384 140.53349338097362 H 0.0 **** 0.06
28121 C 52.47451270853338 162.3897061351528 97.66340298097288 C 0.0 **** -0.24
28122 H 51.9220896687458 162.39373686229527 96.72401042166305 H 0.0 **** 0.06
28123 H 52.24436163203309 163.29677825947144 98.22292288284928 H 0.0 **** 0.06
28124 H 53.54397772987615 162.35259766776275 97.45525064138721 H 0.0 **** 0.06
28125 H 52.187608389990515 161.51788092575478 98.25029013688001 H 0.0 **** 0.06
28126 C 114.62616440676808 26.970167992375025 4.460228190617499 C 0.0 **** -0.24
28127 H 113.83719837857947 27.704399008130338 4.622065353416929 H 0.0 **** 0.06
28128 H 114.74517589489264 26.360571508793868 5.3572885680938285 H 0.0 **** 0.06
28129 H 115.56243803727995 27.48543767289914 4.244778164031359 H 0.0 **** 0.06
28130 H 114.36095621045126 26.330987123584578 3.618840499468824 H 0.0 **** 0.06
28131 C 128.2151015908732 129.11883653199408 148.87975061668317 C 0.0 **** -0.24
28132 H 128.03783571710227 128.37618399103079 149.65728894486426 H 0.0 **** 0.06
28133 H 127.35671344443008 129.15502783584247 148.2086784545296 H 0.0 **** 0.06
28134 H 129.1079216090407 128.84921653439528 148.31530457177732 H 0.0 **** 0.06
28135 H 128.3581304600487 130.09797475488912 149.33900218028717 H 0.0 **** 0.06
28136 C 11.884951815904437 28.02664756830262 43.00874696291791 C 0.0 **** -0.24
28137 H 12.911953631656857 28.048447878416482 42.64391566067604 H 0.0 **** 0.06
28138 H 11.19912713206346 28.052391032501703 42.16127562599513 H 0.0 **** 0.06
28139 H 11.707994161091662 28.89209154541811 43.6462746297228 H 0.0 **** 0.06
28140 H 11.722164775689038 27.113235246826264 43.581120247060795 H 0.0 **** 0.06
28141 C 46.893608557792504 131.59541284712748 76.50859675231132 C 0.0 **** -0.24
28142 H 47.754385628157024 131.38991783121975 75.87130598211607 H 0.0 **** 0.06
28143 H 45.99914041942441 131.16099575051976 76.06117590129466 H 0.0 **** 0.06
28144 H 46.764029685789524 132.67267588688392 76.60795210703591 H 0.0 **** 0.06
28145 H 47.05762581486022 131.15680742404342 77.49258631542503 H 0.0 **** 0.06
28146 C 161.56336971082266 42.18508163800361 80.15152795638132 C 0.0 **** -0.24
28147 H 162.59313418970902 42.33370677440125 80.47744291699897 H 0.0 **** 0.06
28148 H 161.53734167569152 42.085638488136354 79.0668909553106 H 0.0 **** 0.06
28149 H 160.96042830445967 43.04080809793571 80.45367810440821 H 0.0 **** 0.06
28150 H 161.16491940569 41.27958634573646 80.60956889069664 H 0.0 **** 0.06
28151 C 91.67192570698515 73.0378655832487 119.41013072852257 C 0.0 **** -0.24
28152 H 91.48055399245202 72.31844794327426 118.61424884827275 H 0.0 **** 0.06
28153 H 90.72692750471526 73.33996489050975 119.86101457882447 H 0.0 **** 0.06
28154 H 92.17393748501095 73.91285750840217 118.99592160917052 H 0.0 **** 0.06
28155 H 92.30676361268543 72.57989016823142 120.16851401071463 H 0.0 **** 0.06
28156 C 65.29735771582723 112.971224602923 101.49778929445415 C 0.0 **** -0.24
28157 H 64.37207114870917 113.28770450661446 101.01626037769671 H 0.0 **** 0.06
28158 H 65.09740286640204 112.72543592615602 102.54160675752203 H 0.0 **** 0.06
28159 H 66.02830026596335 113.77798214455584 101.44752897205166 H 0.0 **** 0.06
28160 H 65.69024903832299 112.09180902709295 100.98614923335933 H 0.0 **** 0.06
28161 C 42.38186457388397 82.46451766111306 108.3454722661404 C 0.0 **** -0.24
28162 H 42.50747044595633 81.38351900787472 108.28342442169117 H 0.0 **** 0.06
28163 H 43.28186034380745 82.95569309780421 107.97462434489779 H 0.0 **** 0.06
28164 H 42.211105250616825 82.75146686898762 109.38254084080586 H 0.0 **** 0.06
28165 H 41.52742826693394 82.76608137065455 107.74024193120351 H 0.0 **** 0.06
28166 C 120.00250444965297 89.59283746473824 20.779665537185338 C 0.0 **** -0.24
28167 H 120.69704445341927 90.39885537780495 20.542207808333245 H 0.0 **** 0.06
28168 H 120.17269399157715 88.75595801338937 20.10139553323603 H 0.0 **** 0.06
28169 H 118.97895604649955 89.95018134587208 20.666821076745578 H 0.0 **** 0.06
28170 H 120.16304167874807 89.26704775833426 21.806985690257505 H 0.0 **** 0.06
28171 C 107.78987968662588 93.79705360819077 123.40478293989506 C 0.0 **** -0.24
28172 H 107.36833115478964 94.45025219423344 124.1675655047624 H 0.0 **** 0.06
28173 H 108.6321275150406 94.2956399487941 122.92489324706821 H 0.0 **** 0.06
28174 H 107.02812920905501 93.56935937883046 122.6591534053209 H 0.0 **** 0.06
28175 H 108.1315397305473 92.87066917839654 123.86812644523556 H 0.0 **** 0.06
28176 C 34.68871675936359 104.05055995541252 57.58887792206045 C 0.0 **** -0.24
28177 H 34.849732716788054 103.01165866994927 57.87820794492191 H 0.0 **** 0.06
28178 H 35.53221651841426 104.39614607898548 56.99101736028224 H 0.0 **** 0.06
28179 H 34.59967714753043 104.66670650026919 58.48308271430082 H 0.0 **** 0.06
28180 H 33.77271297210632 104.12617957788828 57.002635991489356 H 0.0 **** 0.06
28181 C 158.36834507979947 89.34819843653953 89.91460548030818 C 0.0 **** -0.24
28182 H 157.87031338290595 88.43712879784421 89.58283688654944 H 0.0 **** 0.06
28183 H 158.71764281504267 89.21833860223032 90.93910554506292 H 0.0 **** 0.06
28184 H 157.66715109498722 90.18157943095126 89.87265353948379 H 0.0 **** 0.06
28185 H 159.21774994548025 89.55499722115624 89.26423138276732 H 0.0 **** 0.06
28186 C 94.75065833900724 124.55442130054973 19.000668631561453 C 0.0 **** -0.24
28187 H 94.87280725209125 125.30816383607723 19.777667762222485 H 0.0 **** 0.06
28188 H 95.42500137952864 123.7207106389088 19.193097356566945 H 0.0 **** 0.06
28189 H 94.98232459795322 124.99376407157399 18.030076776471354 H 0.0 **** 0.06
28190 H 93.72088286626553 124.19670184283316 19.001029508385997 H 0.0 **** 0.06
28191 C 38.109211384707464 120.42864308448316 20.287673956291343 C 0.0 **** -0.24
28192 H 39.039353727914374 120.25240290140346 19.746741892903827 H 0.0 **** 0.06
28193 H 37.41029669399613 120.9649444057373 19.644123593930544 H 0.0 **** 0.06
28194 H 38.31313580430077 121.02307118929059 21.1780530346756 H 0.0 **** 0.06
28195 H 37.67250918500497 119.4736608863978 20.581182164858774 H 0.0 **** 0.06
28196 C 52.67519803345891 88.10981449589119 18.004635847130544 C 0.0 **** -0.24
28197 H 53.658490335311825 88.2853690520451 17.568549049149567 H 0.0 **** 0.06
28198 H 52.180389404528256 89.06485766864324 18.181677707707053 H 0.0 **** 0.06
28199 H 52.788112861629315 87.57854561982131 18.94972869001083 H 0.0 **** 0.06
28200 H 52.07602107809325 87.50960129666032 17.32039982952574 H 0.0 **** 0.06
28201 C 0.9174853502765359 149.7942946774449 66.33413385672935 C 0.0 **** -0.24
28202 H 1.7155752980186207 150.35146442516725 66.82667443391335 H 0.0 **** 0.06
28203 H 0.05088505448179603 150.44228623660652 66.20157167001344 H 0.0 **** 0.06
28204 H 0.641553576947274 148.93742909864605 66.94759603951792 H 0.0 **** 0.06
28205 H 1.265526552312565 149.4484548955371 65.36081786372921 H 0.0 **** 0.06
28206 C 19.54082358683968 29.616109712219064 23.44631616061556 C 0.0 **** -0.24
28207 H 19.627580815179442 28.68827612565918 24.01159385345497 H 0.0 **** 0.06
28208 H 19.868031518430513 29.447247315171765 22.419946663898777 H 0.0 **** 0.06
28209 H 20.166585169981545 30.381076195286035 23.905462717392787 H 0.0 **** 0.06
28210 H 18.502321766565387 29.946023461381237 23.44716468890379 H 0.0 **** 0.06
28211 C 7.211954844043362 32.054059190820574 122.10928666749578 C 0.0 **** -0.24
28212 H 7.806853520008531 32.82199682397892 121.61322189205549 H 0.0 **** 0.06
28213 H 7.060839953615641 32.33044401216227 123.15279592828244 H 0.0 **** 0.06
28214 H 7.736297391809842 31.099980187809436 122.05786685820772 H 0.0 **** 0.06
28215 H 6.246656388197721 31.965991388963126 121.61213501305127 H 0.0 **** 0.06
28216 C 10.192759398105814 150.8650803078516 119.06466798256704 C 0.0 **** -0.24
28217 H 9.351047951162862 151.1608005333732 119.69066257921025 H 0.0 **** 0.06
28218 H 10.702076334070973 151.75667085751508 118.69697728428085 H 0.0 **** 0.06
28219 H 9.830048040671045 150.2790616549051 118.2202442362867 H 0.0 **** 0.06
28220 H 10.888485627420998 150.26475528474407 119.65161241037194 H 0.0 **** 0.06
28221 C 64.82798697301048 147.48229453237968 95.53942285760411 C 0.0 **** -0.24
28222 H 64.01171635471913 147.22527416343348 96.21474846293586 H 0.0 **** 0.06
28223 H 65.34948221056943 148.36184053306488 95.9180987500155 H 0.0 **** 0.06
28224 H 64.42515297226326 147.69652341264418 94.54948366148187 H 0.0 **** 0.06
28225 H 65.52370762098558 146.64642150459707 95.47617038449408 H 0.0 **** 0.06
28226 C 44.933224001184186 126.23506743400583 0.6964627255653113 C 0.0 **** -0.24
28227 H 45.96320985402497 126.58311306058425 0.6130704801838363 H 0.0 **** 0.06
28228 H 44.78436720039571 125.38008142456721 0.035806628631895876 H 0.0 **** 0.06
28229 H 44.25457802360819 127.0383289113949 0.409491484553822 H 0.0 **** 0.06
28230 H 44.73179515636511 125.93895514526798 1.7255214032664412 H 0.0 **** 0.06
28231 C 120.77410307434917 75.88681310833557 89.442541778395 C 0.0 **** -0.24
28232 H 121.72716164467406 75.50354062966896 89.07931403181738 H 0.0 **** 0.06
28233 H 120.4634612222307 76.73035895437708 88.82654024929562 H 0.0 **** 0.06
28234 H 120.8841618216081 76.21304262211733 90.47700456118925 H 0.0 **** 0.06
28235 H 120.02138709015136 75.10041535777269 89.3882732212649 H 0.0 **** 0.06
28236 C 108.16363859332978 9.360281948422198 160.8922985459229 C 0.0 **** -0.24
28237 H 108.57506098695708 9.494297652674902 159.89169759106483 H 0.0 **** 0.06
28238 H 108.8239658314061 9.828407663193275 161.62184367052973 H 0.0 **** 0.06
28239 H 108.07876413936259 8.295764249992231 161.109805421425 H 0.0 **** 0.06
28240 H 107.17800821318914 9.822241281960089 160.94433860842622 H 0.0 **** 0.06
28241 C 77.21116938934559 43.20394166248444 112.6071943923775 C 0.0 **** -0.24
28242 H 77.6677271436736 42.53575909381982 111.87745683166628 H 0.0 **** 0.06
28243 H 76.5428648792405 43.898254589424624 112.09627997054213 H 0.0 **** 0.06
28244 H 77.99031168967423 43.76471390107527 113.12395027491391 H 0.0 **** 0.06
28245 H 76.64432412360263 42.618292472927024 113.3307352126227 H 0.0 **** 0.06
28246 C 118.56221537183615 84.68718438172912 100.22752107620695 C 0.0 **** -0.24
28247 H 117.7366945070184 85.16436535957476 100.75644781747073 H 0.0 **** 0.06
28248 H 119.10442807913552 84.03585325878659 100.9133680122282 H 0.0 **** 0.06
28249 H 119.23603014511156 85.45163455650723 99.84227518206166 H 0.0 **** 0.06
28250 H 118.16965056296988 84.09659404541844 99.39928934255212 H 0.0 **** 0.06
28251 C 52.875089096149054 46.14594966836091 151.16212088470456 C 0.0 **** -0.24
28252 H 52.81857934300314 45.06445829586883 151.28635018635478 H 0.0 **** 0.06
28253 H 51.90289662455325 46.587585085320356 151.37879756502645 H 0.0 **** 0.06
28254 H 53.16133363900036 46.37856314938722 150.13650259260928 H 0.0 **** 0.06
28255 H 53.62009390419854 46.55060278691866 151.84773197545846 H 0.0 **** 0.06
28256 C 33.42734580521545 158.51044129101575 139.1025678962453 C 0.0 **** -0.24
28257 H 34.3189880734505 158.15526469849888 139.61877376189463 H 0.0 **** 0.06
28258 H 32.670075530085455 158.7869498930051 139.83610015579328 H 0.0 **** 0.06
28259 H 33.04104726601412 157.71900248549773 138.4604028801575 H 0.0 **** 0.06
28260 H 33.68162567222126 159.38027159918727 138.49561576719435 H 0.0 **** 0.06
28261 C 154.40260790644788 28.947357452830545 123.17664331744948 C 0.0 **** -0.24
28262 H 155.4388094541894 28.61722625088649 123.10555472936352 H 0.0 **** 0.06
28263 H 153.76270386849055 28.25578149319179 122.62852711381328 H 0.0 **** 0.06
28264 H 154.3095475778606 29.944940938677576 122.74770298187093 H 0.0 **** 0.06
28265 H 154.10011280296095 28.97248879224918 124.22293531618584 H 0.0 **** 0.06
28266 C 97.19311289809684 3.366013006972537 137.61239635907737 C 0.0 **** -0.24
28267 H 97.46773849647684 4.18621530468711 136.94952999957073 H 0.0 **** 0.06
28268 H 98.07378423952707 2.7576992107614586 137.8216096682482 H 0.0 **** 0.06
28269 H 96.43203930419332 2.7510809976177555 137.13314440770546 H 0.0 **** 0.06
28270 H 96.79984443258547 3.7690281904272567 138.54559704869303 H 0.0 **** 0.06
28271 C 12.050935328835095 112.00337765116711 41.72001938509243 C 0.0 **** -0.24
28272 H 12.810903388927386 111.37848180376241 41.24936491789062 H 0.0 **** 0.06
28273 H 11.266126797802542 111.37020085481677 42.13535612498352 H 0.0 **** 0.06
28274 H 11.622358477833984 112.6749018837993 40.97717828943861 H 0.0 **** 0.06
28275 H 12.5075154771055 112.58804671469761 42.5188601206314 H 0.0 **** 0.06
28276 C 152.3828420102564 35.90861262930234 112.53918780541574 C 0.0 **** -0.24
28277 H 153.11163399313415 36.379277460950405 111.87935925504888 H 0.0 **** 0.06
28278 H 152.32812260315876 36.466188239600086 113.47444450596049 H 0.0 **** 0.06
28279 H 152.68815148688094 34.882449037670256 112.74554740407211 H 0.0 **** 0.06
28280 H 151.40488825497295 35.90739759575692 112.05888914693855 H 0.0 **** 0.06
28281 C 53.53907491181572 122.31260127682927 146.1011172157796 C 0.0 **** -0.24
28282 H 52.518303696423814 122.27018564007159 146.48212892277158 H 0.0 **** 0.06
28283 H 53.953910971130966 121.30599730527999 146.06101348212374 H 0.0 **** 0.06
28284 H 54.14708066993629 122.93156194674947 146.76161518808613 H 0.0 **** 0.06
28285 H 53.53497038029833 122.7450738113915 145.0999061706223 H 0.0 **** 0.06
28286 C 49.14700853823297 80.93499574039726 10.824217913554492 C 0.0 **** -0.24
28287 H 49.60671983166884 80.06817936700097 11.29937238182248 H 0.0 **** 0.06
28288 H 49.92292285516862 81.56015162766141 10.381163766500656 H 0.0 **** 0.06
28289 H 48.598494684108175 81.51033706797276 11.570194972526473 H 0.0 **** 0.06
28290 H 48.45989678198612 80.60131489895377 10.046140533368359 H 0.0 **** 0.06
28291 C 88.98277806232868 103.69337960712971 137.45121772924367 C 0.0 **** -0.24
28292 H 89.4799672155157 103.87319273414153 138.40448162000553 H 0.0 **** 0.06
28293 H 88.25877630336873 104.48692095078025 137.2636051643532 H 0.0 **** 0.06
28294 H 88.46795151185903 102.73340521463444 137.4856071878668 H 0.0 **** 0.06
28295 H 89.72394061348574 103.68049113481982 136.6524143741951 H 0.0 **** 0.06
28296 C 108.63224306719243 31.725707474464343 45.10279103825292 C 0.0 **** -0.24
28297 H 109.2331782460283 30.906205801478507 44.708010354238354 H 0.0 **** 0.06
28298 H 108.19322450011299 31.427356678862935 46.054813809147106 H 0.0 **** 0.06
28299 H 107.83727747538578 31.966582463903876 44.39640316353308 H 0.0 **** 0.06
28300 H 109.26445492818695 32.60081215862755 45.25104687017688 H 0.0 **** 0.06
28301 C 86.8153810952212 95.93690922764948 93.52030335491919 C 0.0 **** -0.24
28302 H 86.8463468878169 96.5924824891492 94.39104252317821 H 0.0 **** 0.06
28303 H 87.05492952468828 96.5103028541343 92.62473975704286 H 0.0 **** 0.06
28304 H 85.81733359533172 95.5099257580667 93.42267059475842 H 0.0 **** 0.06
28305 H 87.54265970335842 95.13440413767367 93.64405014249415 H 0.0 **** 0.06
28306 C 97.72581713634872 48.17171000907342 39.74207662758923 C 0.0 **** -0.24
28307 H 98.17627905734861 48.04966391275855 40.726980001670114 H 0.0 **** 0.06
28308 H 98.20165842580971 49.006383878249835 39.226919887337274 H 0.0 **** 0.06
28309 H 96.66011013052227 48.37248996235769 39.85319302022394 H 0.0 **** 0.06
28310 H 97.86588582033411 47.258659263167374 39.163318509468624 H 0.0 **** 0.06
28311 C 75.38523763305997 133.4331367541343 126.21444335840062 C 0.0 **** -0.24
28312 H 75.70539566728417 132.97096907883804 127.14785682871661 H 0.0 **** 0.06
28313 H 75.71710156720223 134.4711121221637 126.19079341136438 H 0.0 **** 0.06
28314 H 74.29798312713768 133.39673840814493 126.14509164366493 H 0.0 **** 0.06
28315 H 75.82173234538448 132.89309325493218 125.37410101835997 H 0.0 **** 0.06
28316 C 35.17428807406179 26.522701378512465 153.7169178932643 C 0.0 **** -0.24
28317 H 35.62474977168645 25.588668535624777 153.37980101471007 H 0.0 **** 0.06
28318 H 35.900675246893954 27.084001522790288 154.30592954444063 H 0.0 **** 0.06
28319 H 34.30113833821322 26.3031909829009 154.3305102251819 H 0.0 **** 0.06
28320 H 34.87359964694666 27.113653600749956 152.85255757711315 H 0.0 **** 0.06
28321 C 124.5029051253577 109.22683988962447 114.93511937659201 C 0.0 **** -0.24
28322 H 124.68658293450653 108.89763944816062 115.95827645817269 H 0.0 **** 0.06
28323 H 124.2143315583412 108.3705060588741 114.32561587219269 H 0.0 **** 0.06
28324 H 125.41173816977476 109.67293654875672 114.52866742766184 H 0.0 **** 0.06
28325 H 123.70158865459646 109.96526209368821 114.928234782364 H 0.0 **** 0.06
28326 C 42.740444970274 78.1174043136856 15.273494505524269 C 0.0 **** -0.24
28327 H 42.55510985579798 77.76617643115391 14.258020355289169 H 0.0 **** 0.06
28328 H 43.53666400575899 78.86282419082494 15.259697345611492 H 0.0 **** 0.06
28329 H 43.039527279693615 77.27736701981621 15.899746810067228 H 0.0 **** 0.06
28330 H 41.831531196691245 78.56484596321305 15.6749824391201 H 0.0 **** 0.06
28331 C 119.7948328190138 31.85103739527191 126.14890323660669 C 0.0 **** -0.24
28332 H 119.78027161612525 31.932221664755772 127.23584663259999 H 0.0 **** 0.06
28333 H 120.51895084844327 32.5572200838584 125.74238269386638 H 0.0 **** 0.06
28334 H 118.80459171461877 32.07701553541373 125.75483312098942 H 0.0 **** 0.06
28335 H 120.07669008978905 30.837219753953015 125.86439466315005 H 0.0 **** 0.06
28336 C 2.576881785577939 80.73120524397379 118.88346947240544 C 0.0 **** -0.24
28337 H 3.489961369620005 80.26158884313347 119.2480444811581 H 0.0 **** 0.06
28338 H 2.452760732604446 81.7032296395904 119.36000527478797 H 0.0 **** 0.06
28339 H 1.7224098736992914 80.09675412256513 119.12272965796546 H 0.0 **** 0.06
28340 H 2.640925788974954 80.86027649335128 117.80300251957303 H 0.0 **** 0.06
28341 C 119.27479278251394 111.51134319981128 102.44671162259823 C 0.0 **** -0.24
28342 H 120.26584016776246 111.32645414079207 102.85912879245967 H 0.0 **** 0.06
28343 H 119.00891282671853 112.5580279130545 102.59433212925171 H 0.0 **** 0.06
28344 H 118.54707585596236 110.87684596634423 102.95233419202 H 0.0 **** 0.06
28345 H 119.27630726607362 111.2832405020585 101.38052039092818 H 0.0 **** 0.06
28346 C 6.366099962943565 107.56169058655735 125.263602696518 C 0.0 **** -0.24
28347 H 5.336043264216471 107.21601674257522 125.18659232921442 H 0.0 **** 0.06
28348 H 6.635674185517274 107.66860242175426 126.31392332800499 H 0.0 **** 0.06
28349 H 6.465419098257172 108.52519533197324 124.76272526594624 H 0.0 **** 0.06
28350 H 7.029280097786568 106.83646819459534 124.79033163643786 H 0.0 **** 0.06
28351 C 98.87716244056259 140.0790439278227 145.404000372349 C 0.0 **** -0.24
28352 H 98.36920339345662 140.81472972123453 144.78067472202838 H 0.0 **** 0.06
28353 H 98.94035808057112 140.45025382140278 146.4267258347819 H 0.0 **** 0.06
28354 H 99.88209409701776 139.90725277739298 145.0168439979464 H 0.0 **** 0.06
28355 H 98.31822860177039 139.143375501528 145.3906806681921 H 0.0 **** 0.06
28356 C 17.58181302827424 111.47471890941085 68.80970413665375 C 0.0 **** -0.24
28357 H 18.285742766678865 110.77845284691267 68.35430943202203 H 0.0 **** 0.06
28358 H 16.656236976909383 111.48436432740692 68.23360534980134 H 0.0 **** 0.06
28359 H 18.015196994505168 112.47458754417823 68.81806431879414 H 0.0 **** 0.06
28360 H 17.371041763326637 111.1620463747106 69.83198012175228 H 0.0 **** 0.06
28361 C 34.75003064978918 6.331260467869804 97.3686325519395 C 0.0 **** -0.24
28362 H 34.515888471729426 6.554624416529826 98.40921836080767 H 0.0 **** 0.06
28363 H 35.61956023529389 5.675787478513428 97.32528164555035 H 0.0 **** 0.06
28364 H 34.96572092549221 7.2580425290635375 96.83725833071566 H 0.0 **** 0.06
28365 H 33.89789988491955 5.83572766020238 96.90316154397084 H 0.0 **** 0.06
28366 C 81.0990184315399 111.37343932911466 67.9355623428188 C 0.0 **** -0.24
28367 H 80.39839726141768 110.66120071032012 67.50021079614987 H 0.0 **** 0.06
28368 H 80.72759929882987 112.38684723208158 67.7831218347703 H 0.0 **** 0.06
28369 H 82.07050301173187 111.26639948361537 67.45466631507014 H 0.0 **** 0.06
28370 H 81.19788815232478 111.17851060650906 69.00353024221175 H 0.0 **** 0.06
28371 C 12.460897156914342 145.6140566347321 102.74368766620822 C 0.0 **** -0.24
28372 H 12.627285545448757 145.99616916596162 101.73718096838496 H 0.0 **** 0.06
28373 H 11.527528315621282 146.018406662759 103.13587324527126 H 0.0 **** 0.06
28374 H 13.286845582494223 145.91656148989583 103.38715783356616 H 0.0 **** 0.06
28375 H 12.402242352172841 144.52600804199392 102.71429836222418 H 0.0 **** 0.06
28376 C 148.03753544669604 39.79785187812598 6.468616841285893 C 0.0 **** -0.24
28377 H 148.5438488123135 40.05115939470943 5.536801433201845 H 0.0 **** 0.06
28378 H 146.96532618478378 39.96150726945592 6.356326613250587 H 0.0 **** 0.06
28379 H 148.41941876637316 40.427312151808565 7.271604831214347 H 0.0 **** 0.06
28380 H 148.2223079415047 38.75002743321352 6.708166324104582 H 0.0 **** 0.06
28381 C 136.45200915943747 40.64982637163273 83.59445753334208 C 0.0 **** -0.24
28382 H 136.31977298271335 41.730530755205905 83.65400172283657 H 0.0 **** 0.06
28383 H 137.30643866762406 40.42317869819627 82.95700958000606 H 0.0 **** 0.06
28384 H 135.55322385237224 40.19685034948155 83.17485822429656 H 0.0 **** 0.06
28385 H 136.627211930805 40.251074241605735 84.59358794492336 H 0.0 **** 0.06
28386 C 121.96479349622643 33.90331927403486 45.01618083161077 C 0.0 **** -0.24
28387 H 122.83670161616027 33.323380745250574 44.71104408165439 H 0.0 **** 0.06
28388 H 121.37664920343298 33.32696067023056 45.729073427141316 H 0.0 **** 0.06
28389 H 121.3552357740424 34.13005959550952 44.14078372072015 H 0.0 **** 0.06
28390 H 122.29251824429934 34.83282637196024 45.48112586489714 H 0.0 **** 0.06
28391 C 124.58874954413238 105.80182469308048 162.80371001403688 C 0.0 **** -0.24
28392 H 125.34062900098479 106.14728922659754 163.51342573337857 H 0.0 **** 0.06
28393 H 124.49886995600218 104.71697811582007 162.86951621076662 H 0.0 **** 0.06
28394 H 124.88826865814633 106.08107243537935 161.79303999561478 H 0.0 **** 0.06
28395 H 123.62863636422958 106.26196314940427 163.0387039687613 H 0.0 **** 0.06
28396 C 146.78137898784053 47.75564910961489 146.96498807511279 C 0.0 **** -0.24
28397 H 146.86210870246694 47.14544267189531 146.06436954920466 H 0.0 **** 0.06
28398 H 147.28918552463324 48.70731890435802 146.8059440526688 H 0.0 **** 0.06
28399 H 147.24474154868517 47.230729191606656 147.80073210964392 H 0.0 **** 0.06
28400 H 145.7297450515784 47.93673601648156 147.18708591551857 H 0.0 **** 0.06
28401 C 93.72254621387158 51.325406330224894 66.21748083197421 C 0.0 **** -0.24
28402 H 93.34787927925247 50.342386886175404 66.50023562484337 H 0.0 **** 0.06
28403 H 94.39751501277041 51.69296853630959 66.99098973832282 H 0.0 **** 0.06
28404 H 92.8856766555014 52.01476241697327 66.10794833690385 H 0.0 **** 0.06
28405 H 94.25832458336114 51.251289518709314 65.27190267564995 H 0.0 **** 0.06
28406 C 60.818278483529255 56.16756951916588 34.26322038740669 C 0.0 **** -0.24
28407 H 59.91738312120768 56.77865381340138 34.31865852974346 H 0.0 **** 0.06
28408 H 61.2102367808414 56.18924692778525 33.245955591996605 H 0.0 **** 0.06
28409 H 60.578301632100406 55.14022621974583 34.539065891911406 H 0.0 **** 0.06
28410 H 61.56737356295022 56.56186005431833 34.9505735868446 H 0.0 **** 0.06
28411 C 58.52319330439212 32.909714745629344 5.2156503508078345 C 0.0 **** -0.24
28412 H 58.86203046780048 32.17684532885485 4.483947797680173 H 0.0 **** 0.06
28413 H 58.70389002801329 32.52940397618141 6.220483289489778 H 0.0 **** 0.06
28414 H 57.45679993366775 33.09036480080567 5.081786309016138 H 0.0 **** 0.06
28415 H 59.07035739209985 33.84197179567735 5.07547149767862 H 0.0 **** 0.06
28416 C 14.376342466884012 4.957928316348756 103.18072902953497 C 0.0 **** -0.24
28417 H 14.032359795668526 4.558429414677505 104.13473290987548 H 0.0 **** 0.06
28418 H 13.964088400039202 4.360656825108521 102.36779472140796 H 0.0 **** 0.06
28419 H 15.464704394603018 4.922301527254945 103.14424789997716 H 0.0 **** 0.06
28420 H 14.042879562302574 5.991022879713427 103.07853316278522 H 0.0 **** 0.06
28421 C 75.99952274707806 94.6577149827598 52.92362065994428 C 0.0 **** -0.24
28422 H 76.7525048844683 95.39720380428007 53.19537795371707 H 0.0 **** 0.06
28423 H 75.87058424422497 93.9518487875383 53.74421168904951 H 0.0 **** 0.06
28424 H 76.32149105294843 94.12244290106518 52.03053104796561 H 0.0 **** 0.06
28425 H 75.05258057113556 95.16037544930508 52.72402642160131 H 0.0 **** 0.06
28426 C 65.04225176292044 99.65514748773319 63.0809317721931 C 0.0 **** -0.24
28427 H 64.04369279251586 99.8843946005365 63.45391517743697 H 0.0 **** 0.06
28428 H 65.70084484262452 100.50505982113242 63.26101522394649 H 0.0 **** 0.06
28429 H 64.9924903810466 99.45296784796432 62.01141364355962 H 0.0 **** 0.06
28430 H 65.43009820824915 98.77756505878497 63.59843160755058 H 0.0 **** 0.06
28431 C 125.52165301738418 126.88264822544843 43.825452756393844 C 0.0 **** -0.24
28432 H 125.69366456007415 127.60384451169895 44.62353092154069 H 0.0 **** 0.06
28433 H 124.49465816323547 126.5214657276754 43.87708240634677 H 0.0 **** 0.06
28434 H 126.20797805773884 126.04321798942178 43.94015103897385 H 0.0 **** 0.06
28435 H 125.69180759039239 127.36119589610618 42.86096667206371 H 0.0 **** 0.06
28436 C 33.496844760743784 104.91143162820384 111.67324912903555 C 0.0 **** -0.24
28437 H 34.489245426053174 104.90426134805162 111.22409623900498 H 0.0 **** 0.06
28438 H 32.983837392081114 105.83596347177539 111.40693880515687 H 0.0 **** 0.06
28439 H 33.58799241192651 104.84482454023063 112.75746242090801 H 0.0 **** 0.06
28440 H 32.92536690408576 104.05968914539332 111.30411681599398 H 0.0 **** 0.06
28441 C 154.54270778707522 89.98651288936317 107.22888618654554 C 0.0 **** -0.24
28442 H 154.5240322076382 90.04804558074268 106.14069924852646 H 0.0 **** 0.06
28443 H 155.52995761383377 89.65998216550712 107.55753852246664 H 0.0 **** 0.06
28444 H 153.7922199307132 89.27117296108145 107.56408403287338 H 0.0 **** 0.06
28445 H 154.32386768892198 90.96737061201823 107.65175261460502 H 0.0 **** 0.06
28446 C 142.37762756920534 91.14846454581664 18.602452540135303 C 0.0 **** -0.24
28447 H 142.8302335962219 90.735968921975 19.504111565076713 H 0.0 **** 0.06
28448 H 142.19071427070543 92.21296329335792 18.74436341067849 H 0.0 **** 0.06
28449 H 141.43524177221923 90.6376905506632 18.402530512823972 H 0.0 **** 0.06
28450 H 143.05432063767486 91.00723541727041 17.758804671962146 H 0.0 **** 0.06
28451 C 40.270818066882555 77.1461032652788 35.441567999784155 C 0.0 **** -0.24
28452 H 40.05686271186133 77.81540634429149 34.60785679559609 H 0.0 **** 0.06
28453 H 40.66905955331114 76.20549792133136 35.05936491120539 H 0.0 **** 0.06
28454 H 39.352838934298205 76.95306268168417 35.997381389846794 H 0.0 **** 0.06
28455 H 41.003405071248835 77.61061334771775 36.10080353306785 H 0.0 **** 0.06
28456 C 153.674487610413 8.34020430775415 24.740446021601713 C 0.0 **** -0.24
28457 H 153.12895827680262 8.180870040467141 25.670043334599995 H 0.0 **** 0.06
28458 H 153.19080217168246 9.131267852361802 24.16593164241135 H 0.0 **** 0.06
28459 H 153.67905184762367 7.418691861640234 24.158621457024196 H 0.0 **** 0.06
28460 H 154.70032135939485 8.631506659565133 24.966647089090685 H 0.0 **** 0.06
28461 C 109.0865607597604 44.00019607384539 135.90001603920774 C 0.0 **** -0.24
28462 H 109.42836455769603 43.775196517900824 136.90998742552526 H 0.0 **** 0.06
28463 H 108.568511068904 44.95915593483144 135.89679806802073 H 0.0 **** 0.06
28464 H 108.40608036838438 43.2177138656386 135.56489833954666 H 0.0 **** 0.06
28465 H 109.94375691525394 44.04791876983812 135.22875518255708 H 0.0 **** 0.06
28466 C 98.86444168585103 156.23926209449792 40.57159874428791 C 0.0 **** -0.24
28467 H 99.8194537316659 156.70194963522462 40.32181864008044 H 0.0 **** 0.06
28468 H 98.40082798420687 155.85206729917672 39.66398462050769 H 0.0 **** 0.06
28469 H 98.20977927037868 156.98247101970736 41.026626730092474 H 0.0 **** 0.06
28470 H 99.03028391486262 155.42147544664826 41.27273368318451 H 0.0 **** 0.06
28471 C 138.4979708538952 33.07426904496742 39.17100789109374 C 0.0 **** -0.24
28472 H 138.63329489760582 32.02316991204401 38.91775930500266 H 0.0 **** 0.06
28473 H 139.4727658601658 33.555046672748375 39.26289083821328 H 0.0 **** 0.06
28474 H 137.9631578161337 33.153576346885956 40.11790769968506 H 0.0 **** 0.06
28475 H 137.92279649776225 33.566151664600994 38.38696657449883 H 0.0 **** 0.06
28476 C 85.51679680168331 94.33833771983913 157.93906090918722 C 0.0 **** -0.24
28477 H 85.50757437073452 94.35002982309607 156.84859672611287 H 0.0 **** 0.06
28478 H 85.4643774184319 93.30824785472277 158.291270970646 H 0.0 **** 0.06
28479 H 84.66000907655109 94.89612649691378 158.31547065108202 H 0.0 **** 0.06
28480 H 86.43665316144794 94.79824588887487 158.29836101841158 H 0.0 **** 0.06
28481 C 31.618516231071887 73.3000271024199 138.72226944259785 C 0.0 **** -0.24
28482 H 31.40892127429641 72.4391071802899 139.35762109191103 H 0.0 **** 0.06
28483 H 32.42055107780765 73.8916574487772 139.1651515193385 H 0.0 **** 0.06
28484 H 30.721446983283442 73.912820700293 138.63386341418598 H 0.0 **** 0.06
28485 H 31.923324378108035 72.95606653422776 137.73410297661482 H 0.0 **** 0.06
28486 C 106.41979220285933 97.30945033286162 18.417740373558246 C 0.0 **** -0.24
28487 H 106.55322839193025 97.81082274929076 19.376588303880055 H 0.0 **** 0.06
28488 H 105.7868739222649 97.91970283228278 17.77407573364644 H 0.0 **** 0.06
28489 H 105.94938395797783 96.33943187709696 18.578158982375612 H 0.0 **** 0.06
28490 H 107.39175151857324 97.16804525351381 17.94472287027574 H 0.0 **** 0.06
28491 C 64.18439935423069 40.74595850933632 92.5912246559407 C 0.0 **** -0.24
28492 H 63.761538728310455 41.23291723460697 91.71271515953855 H 0.0 **** 0.06
28493 H 64.73419045081982 39.85595460375741 92.28268017198467 H 0.0 **** 0.06
28494 H 63.38080686564723 40.46034318796259 93.26963812919553 H 0.0 **** 0.06
28495 H 64.86083345905882 41.43420467140247 93.09746171564743 H 0.0 **** 0.06
28496 C 109.99630927526181 148.40878645924326 38.832077346057645 C 0.0 **** -0.24
28497 H 110.52156686823969 149.2874839689705 39.206719857210516 H 0.0 **** 0.06
28498 H 109.00145557188642 148.36438798731163 39.27551702377225 H 0.0 **** 0.06
28499 H 110.55442260124559 147.5117164047964 39.10011967063811 H 0.0 **** 0.06
28500 H 109.90918804718015 148.47214801164873 37.74759680259437 H 0.0 **** 0.06
28501 C 158.68215357303885 120.79859967678124 19.8944728923247 C 0.0 **** -0.24
28502 H 158.62208884057605 121.82580565395051 19.535465997519964 H 0.0 **** 0.06
28503 H 159.68360888435373 120.60506133017265 20.277329247804374 H 0.0 **** 0.06
28504 H 158.46778356719335 120.11390489149778 19.07415563978074 H 0.0 **** 0.06
28505 H 157.9529286413765 120.64988300152925 20.691215148645 H 0.0 **** 0.06
28506 C 53.21734145363962 52.91318697680177 47.355701653798576 C 0.0 **** -0.24
28507 H 52.83409403032067 51.892520252273584 47.351491830998384 H 0.0 **** 0.06
28508 H 52.646567966411 53.51790329338962 46.65129719257925 H 0.0 **** 0.06
28509 H 54.267604797152245 52.90784666085693 47.063506073747504 H 0.0 **** 0.06
28510 H 53.12125972832064 53.333136041206615 48.35692887053949 H 0.0 **** 0.06
28511 C 160.40786089848854 109.60270228919106 142.94740120094113 C 0.0 **** -0.24
28512 H 160.42344475085994 109.80096986075665 144.0188212638293 H 0.0 **** 0.06
28513 H 161.25905232347128 110.09351945341157 142.47529048116343 H 0.0 **** 0.06
28514 H 159.48218278860887 109.99060023138628 142.52050059880298 H 0.0 **** 0.06
28515 H 160.46595738204016 108.5283626915145 142.7755959243624 H 0.0 **** 0.06
28516 C 155.7991261681728 14.200488330583397 11.440888711956156 C 0.0 **** -0.24
28517 H 155.66558304553496 14.888648911289494 10.606873081632585 H 0.0 **** 0.06
28518 H 156.3916038401839 13.345611602720936 11.114718743813711 H 0.0 **** 0.06
28519 H 154.82519654878018 13.856747007919267 11.78781784581794 H 0.0 **** 0.06
28520 H 156.3157631698516 14.711291865220062 12.253715769867 H 0.0 **** 0.06
28521 C 143.11576104745984 61.059459398687395 60.368266121205636 C 0.0 **** -0.24
28522 H 143.20747606142342 61.13963836855258 61.451847946312796 H 0.0 **** 0.06
28523 H 143.57485182950418 60.13019197018036 60.03221325355025 H 0.0 **** 0.06
28524 H 143.61886063347256 61.90538812432554 59.898338151299356 H 0.0 **** 0.06
28525 H 142.06112516722757 61.06453276993315 60.092008466128675 H 0.0 **** 0.06
28526 C 162.4533860503921 28.096765995216174 76.8523284893631 C 0.0 **** -0.24
28527 H 161.4688552692997 27.888958950507742 76.43455798250089 H 0.0 **** 0.06
28528 H 162.37815294851742 28.915862377967073 77.569497951081 H 0.0 **** 0.06
28529 H 163.1371611684918 28.37761951197149 76.05126185862137 H 0.0 **** 0.06
28530 H 162.82978925978256 27.206070440347276 77.35592845397859 H 0.0 **** 0.06
28531 C 47.243954143647414 71.38369006872594 124.18098071746772 C 0.0 **** -0.24
28532 H 46.690738551190634 71.54338537829696 123.25506020483635 H 0.0 **** 0.06
28533 H 48.31121386396978 71.49024768478354 123.98839826462103 H 0.0 **** 0.06
28534 H 47.03956005188783 70.38194257895398 124.55739915963375 H 0.0 **** 0.06
28535 H 46.932265228800134 72.12111245011103 124.92129695739152 H 0.0 **** 0.06
28536 C 81.80507940357302 106.34019119375296 132.25869519187358 C 0.0 **** -0.24
28537 H 82.48409516607614 105.48887067142601 132.2224903745295 H 0.0 **** 0.06
28538 H 82.17812588010247 107.1294779813797 131.6062493774914 H 0.0 **** 0.06
28539 H 81.7428939702204 106.71291034123786 133.28103479334686 H 0.0 **** 0.06
28540 H 80.815202597893 106.02950578096804 131.92500622212657 H 0.0 **** 0.06
28541 C 74.22823039606394 16.334737603874103 50.539660855085856 C 0.0 **** -0.24
28542 H 74.01533567950422 15.30039154186634 50.27096977203706 H 0.0 **** 0.06
28543 H 74.34737448553122 16.928574648259897 49.632741264410186 H 0.0 **** 0.06
28544 H 75.14778747731447 16.37542568201357 51.12416674405438 H 0.0 **** 0.06
28545 H 73.40411511331725 16.73440222696609 51.130425647218715 H 0.0 **** 0.06
28546 C 149.58740771822812 127.14978249147205 149.3629018260628 C 0.0 **** -0.24
28547 H 150.66964923176948 127.02400181860375 149.3521613948468 H 0.0 **** 0.06
28548 H 149.13279783521614 126.34060200446464 149.93434442705745 H 0.0 **** 0.06
28549 H 149.20891859692318 127.12949203853097 148.34101184513088 H 0.0 **** 0.06
28550 H 149.3374017667257 128.1061718257077 149.82310976582312 H 0.0 **** 0.06
28551 C 37.79983346405328 126.62881288126965 89.68989706688822 C 0.0 **** -0.24
28552 H 37.227915452359326 127.33529592422587 89.0890407382144 H 0.0 **** 0.06
28553 H 37.143499568599054 126.16090919107492 90.4233803988915 H 0.0 **** 0.06
28554 H 38.6031427131889 127.15637267229067 90.20491531529993 H 0.0 **** 0.06
28555 H 38.225659847259095 125.86241013799142 89.04263856476776 H 0.0 **** 0.06
28556 C 22.40997220057386 65.30073233615171 86.4900607250464 C 0.0 **** -0.24
28557 H 21.702842548310848 66.05308433082095 86.14092467322553 H 0.0 **** 0.06
28558 H 22.88509260315658 65.64669451793816 87.40891908021047 H 0.0 **** 0.06
28559 H 23.17139057116983 65.13732205135935 85.72734190226205 H 0.0 **** 0.06
28560 H 21.882174034378465 64.36710623952139 86.68217848647623 H 0.0 **** 0.06
28561 C 157.2182177082816 129.28826859921523 108.49434024348872 C 0.0 **** -0.24
28562 H 156.2038422186106 129.68488176262585 108.43082420915474 H 0.0 **** 0.06
28563 H 157.4844775475607 129.14035156252726 109.54098350085366 H 0.0 **** 0.06
28564 H 157.91240910053034 129.99303103403042 108.03732595734098 H 0.0 **** 0.06
28565 H 157.26870072603367 128.3356453761315 107.96754872972872 H 0.0 **** 0.06
28566 C 138.15035633758734 49.258540937574224 53.089462636187164 C 0.0 **** -0.24
28567 H 137.9965496975828 50.112852827019196 53.74931079536924 H 0.0 **** 0.06
28568 H 137.32746518051357 48.55466323055981 53.20980856317044 H 0.0 **** 0.06
28569 H 139.08944452943015 48.76736429044894 53.34477760235376 H 0.0 **** 0.06
28570 H 138.18862689437418 49.60099178969455 52.05523604490753 H 0.0 **** 0.06
28571 C 106.19093990201031 59.653917915011846 135.5145012069852 C 0.0 **** -0.24
28572 H 106.7066563654644 58.70774282402874 135.34701652878258 H 0.0 **** 0.06
28573 H 106.15489227398226 60.21749504685215 134.5825230834381 H 0.0 **** 0.06
28574 H 106.7261294699214 60.23050618316256 136.26831678236923 H 0.0 **** 0.06
28575 H 105.17651869282275 59.45673416372884 135.86093017479905 H 0.0 **** 0.06
28576 C 93.81361641181677 82.22230248440407 90.90756841097146 C 0.0 **** -0.24
28577 H 93.96713002740552 81.16996326341996 90.66936560173602 H 0.0 **** 0.06
28578 H 94.52791326116872 82.82853242835337 90.34821593028076 H 0.0 **** 0.06
28579 H 93.96286618291091 82.3781492664019 91.97591907310817 H 0.0 **** 0.06
28580 H 92.79951490205013 82.51236721926612 90.63567434336045 H 0.0 **** 0.06
28581 C 161.83835140417148 44.11080892473363 99.02657421657182 C 0.0 **** -0.24
28582 H 161.03107722240316 44.144393289302286 98.29484315513477 H 0.0 **** 0.06
28583 H 161.5653256651865 44.71008264591741 99.8962349927294 H 0.0 **** 0.06
28584 H 162.74911178665099 44.509487694789485 98.58142977476976 H 0.0 **** 0.06
28585 H 162.00534728868183 43.078275228434904 99.33452132061134 H 0.0 **** 0.06
28586 C 20.212393476776647 56.538585376819796 9.633157863477777 C 0.0 **** -0.24
28587 H 21.11421593012127 56.81297086455773 9.08581178979017 H 0.0 **** 0.06
28588 H 19.367218668318465 56.500711998123464 8.945670398104824 H 0.0 **** 0.06
28589 H 20.01830610463245 57.27992142563079 10.407778277602745 H 0.0 **** 0.06
28590 H 20.35099579267741 55.55994163427275 10.09349545929905 H 0.0 **** 0.06
28591 C 5.585874505925972 43.653236334394535 71.31562022167294 C 0.0 **** -0.24
28592 H 5.233910674388454 44.17060977086146 70.42267617605746 H 0.0 **** 0.06
28593 H 6.607884525861095 43.31063327245732 71.15761554096535 H 0.0 **** 0.06
28594 H 4.941392592647048 42.79776195925115 71.5170836256444 H 0.0 **** 0.06
28595 H 5.558329907610698 44.33689418690335 72.16394214317428 H 0.0 **** 0.06
28596 C 78.29659530571388 3.036856517764754 41.74116033299744 C 0.0 **** -0.24
28597 H 77.90687979353527 2.3099068703037986 42.45344319311424 H 0.0 **** 0.06
28598 H 79.37881766281475 3.1069229953211206 41.84799804693249 H 0.0 **** 0.06
28599 H 77.8480914222427 4.011409351397397 41.934982179431714 H 0.0 **** 0.06
28600 H 78.0514526078378 2.719955590384153 40.72788609076717 H 0.0 **** 0.06
28601 C 145.71626200745345 94.65665811096426 115.59555980660474 C 0.0 **** -0.24
28602 H 146.2957059498244 95.5014769373845 115.22190253849402 H 0.0 **** 0.06
28603 H 145.7871480464366 93.82800693071738 114.89143678611194 H 0.0 **** 0.06
28604 H 144.67222398611906 94.95262344512673 115.70467456080783 H 0.0 **** 0.06
28605 H 146.10921502225034 94.34720387790685 116.56372086956691 H 0.0 **** 0.06
28606 C 40.37750832415236 160.1023544390265 11.085997133549604 C 0.0 **** -0.24
28607 H 41.27167643672021 159.48744429170114 11.19395448354372 H 0.0 **** 0.06
28608 H 39.60520348325571 159.74212895530604 11.765470226054198 H 0.0 **** 0.06
28609 H 40.0170013076181 160.03980579443692 10.058926428288942 H 0.0 **** 0.06
28610 H 40.618692612264056 161.13837854974747 11.3242995531077 H 0.0 **** 0.06
28611 C 75.54212016606527 126.27101419758219 119.98288305384523 C 0.0 **** -0.24
28612 H 75.14494803913209 126.81574423562762 120.83952787500829 H 0.0 **** 0.06
28613 H 76.03199987999949 126.96925388636103 119.3039919961605 H 0.0 **** 0.06
28614 H 74.72577565240812 125.76929500317127 119.46207946384274 H 0.0 **** 0.06
28615 H 76.26360341395312 125.52943692735687 120.32643791607703 H 0.0 **** 0.06
28616 C 81.97707679429188 83.06450651267926 131.84255877846294 C 0.0 **** -0.24
28617 H 81.55660639423303 83.96808054266421 132.28533581812644 H 0.0 **** 0.06
28618 H 82.03213671109553 82.28146671511881 132.5989045599153 H 0.0 **** 0.06
28619 H 82.97713540967925 83.27713249706177 131.46423243362736 H 0.0 **** 0.06
28620 H 81.34096449713408 82.73330259750935 131.02193343301784 H 0.0 **** 0.06
28621 C 90.40019386620531 17.10499017598778 90.92960139265297 C 0.0 **** -0.24
28622 H 90.46356443243218 18.19140953336199 90.99350770190496 H 0.0 **** 0.06
28623 H 90.80497544790288 16.663672039307755 91.84030003964476 H 0.0 **** 0.06
28624 H 90.97341622481326 16.75758515843097 90.07033035115906 H 0.0 **** 0.06
28625 H 89.35643847817465 16.80873178233867 90.81478162633317 H 0.0 **** 0.06
28626 C 16.26614751028262 134.8764282941297 62.95490322591684 C 0.0 **** -0.24
28627 H 17.289472406010077 135.11719786213413 62.66466872076819 H 0.0 **** 0.06
28628 H 15.793387985810966 135.76083861824992 63.38357875247607 H 0.0 **** 0.06
28629 H 16.276620868258476 134.07510596926733 63.6933804973836 H 0.0 **** 0.06
28630 H 15.705771695552073 134.5544106039137 62.07690070625563 H 0.0 **** 0.06
28631 C 46.318613177916376 54.0853617673103 47.56034753439356 C 0.0 **** -0.24
28632 H 46.694259253396055 53.28991761288904 46.917820930884986 H 0.0 **** 0.06
28633 H 45.3107145756607 54.35965525695076 47.24683775188102 H 0.0 **** 0.06
28634 H 46.972262575235206 54.95496250434036 47.482386500096254 H 0.0 **** 0.06
28635 H 46.296658724672284 53.73925299010196 48.59388930117832 H 0.0 **** 0.06
28636 C 113.54332117867568 0.5629071375827834 138.2595598871482 C 0.0 **** -0.24
28637 H 113.76484133933303 1.0871478418621905 137.329836076627 H 0.0 **** 0.06
28638 H 112.51483677327792 0.7697065753351353 138.55702199280822 H 0.0 **** 0.06
28639 H 114.22317468832341 0.9045749973665238 139.04079235569847 H 0.0 **** 0.06
28640 H 113.67043191376854 -0.5098008642327159 138.1105891234589 H 0.0 **** 0.06
28641 C 132.59569091613335 140.42722120190513 101.8685969733591 C 0.0 **** -0.24
28642 H 133.30577333216542 140.34521549000934 102.69177064597545 H 0.0 **** 0.06
28643 H 131.64410283725277 139.9830031391197 102.16461786524542 H 0.0 **** 0.06
28644 H 132.98651676757902 139.90060229919817 100.99819101733334 H 0.0 **** 0.06
28645 H 132.44495298943323 141.47776896314676 101.62145872252614 H 0.0 **** 0.06
28646 C 14.690945415395142 156.63465321424113 86.58678862833999 C 0.0 **** -0.24
28647 H 13.927201015392285 156.46277021339148 87.34549251841796 H 0.0 **** 0.06
28648 H 15.645882872688276 156.2465534414332 86.93853117482752 H 0.0 **** 0.06
28649 H 14.779635013532172 157.70426026198305 86.39707102518172 H 0.0 **** 0.06
28650 H 14.408343246899442 156.12414779316083 85.66514979478822 H 0.0 **** 0.06
28651 C 62.00011348557358 48.06237731797553 13.626508656060324 C 0.0 **** -0.24
28652 H 62.302908134066726 49.02896148074126 13.223593876845953 H 0.0 **** 0.06
28653 H 62.59010095807288 47.27384841397267 13.160316873142108 H 0.0 **** 0.06
28654 H 60.942903399138885 47.897180843413096 13.41737034646156 H 0.0 **** 0.06
28655 H 62.16367080596309 48.05125625549178 14.704281912325236 H 0.0 **** 0.06
28656 C 123.24304496659795 144.8412674214592 103.21772094769508 C 0.0 **** -0.24
28657 H 122.92209513701485 145.69082747695433 102.61559076961416 H 0.0 **** 0.06
28658 H 124.03919945609337 145.1546256019633 103.89371248844938 H 0.0 **** 0.06
28659 H 123.61146517005656 144.0505623080498 102.56405678551215 H 0.0 **** 0.06
28660 H 122.39902843433603 144.4689337533747 103.7992066479161 H 0.0 **** 0.06
28661 C 120.30369860021904 158.93000853364475 31.772366583631197 C 0.0 **** -0.24
28662 H 120.15204004308461 158.27430075921845 32.630156693314575 H 0.0 **** 0.06
28663 H 120.73416081920465 159.87392676925367 32.10839267091515 H 0.0 **** 0.06
28664 H 119.34754285522109 159.11904764248288 31.28562309273832 H 0.0 **** 0.06
28665 H 120.98212795910806 158.45165256450304 31.066078382815334 H 0.0 **** 0.06
28666 C 150.59751680546094 78.6637326432807 157.78593030477282 C 0.0 **** -0.24
28667 H 150.96462765216995 79.43630111980303 158.46134234384138 H 0.0 **** 0.06
28668 H 150.81180749454458 78.95072478135808 156.75605609205547 H 0.0 **** 0.06
28669 H 149.52116600815987 78.54975444363299 157.91478211014115 H 0.0 **** 0.06
28670 H 151.09307307034078 77.72012302443454 158.01068057228485 H 0.0 **** 0.06
28671 C 9.484785766454223 124.13194445043405 103.5959632269849 C 0.0 **** -0.24
28672 H 9.39167371697286 125.19047461297424 103.35175037294701 H 0.0 **** 0.06
28673 H 8.498043857692068 123.72101070179406 103.80893202512178 H 0.0 **** 0.06
28674 H 10.125103933040577 124.01621658007215 104.47023809854838 H 0.0 **** 0.06
28675 H 9.923865263332374 123.60259515850566 102.75082397626744 H 0.0 **** 0.06
28676 C 117.18303578486427 155.31641421830653 92.67171707291804 C 0.0 **** -0.24
28677 H 117.29913397089456 156.38824919499154 92.51410736153781 H 0.0 **** 0.06
28678 H 117.78065397585124 155.00909202111833 93.53043090617878 H 0.0 **** 0.06
28679 H 117.51929193737362 154.7801996009621 91.78406930924864 H 0.0 **** 0.06
28680 H 116.13410151824598 155.08856419010255 92.85910997700907 H 0.0 **** 0.06
28681 C 81.11240787397622 14.852949568805826 73.7462033434946 C 0.0 **** -0.24
28682 H 81.54953144997768 15.001823939159692 74.73335137949582 H 0.0 **** 0.06
28683 H 81.70018062766684 15.394006568064896 73.00325621718933 H 0.0 **** 0.06
28684 H 80.08880653466963 15.227876238098844 73.74171400003208 H 0.0 **** 0.06
28685 H 81.11112287035411 13.790184505704872 73.50570469185008 H 0.0 **** 0.06
28686 C 154.38974336658148 81.39297843412905 117.15426144952028 C 0.0 **** -0.24
28687 H 153.76678158431656 82.28716677304863 117.13771808152688 H 0.0 **** 0.06
28688 H 155.0031969180785 81.36143656539187 116.25320221697598 H 0.0 **** 0.06
28689 H 153.75436149984978 80.50846468550765 117.19274717867052 H 0.0 **** 0.06
28690 H 155.03580235699053 81.41623041983325 118.03253191918486 H 0.0 **** 0.06
28691 C 45.1132877890625 30.65966095523285 43.78243576249184 C 0.0 **** -0.24
28692 H 44.68235191663628 31.540295046551492 44.25878933701222 H 0.0 **** 0.06
28693 H 45.88899925850255 30.9682862543824 43.081527779038026 H 0.0 **** 0.06
28694 H 44.333216831460746 30.117723039296443 43.246515533360366 H 0.0 **** 0.06
28695 H 45.54846615364765 30.01148023989756 44.5434084440858 H 0.0 **** 0.06
28696 C 140.9493858847224 126.01771407869902 81.8355006720132 C 0.0 **** -0.24
28697 H 140.68217905827703 125.69023021260273 80.83113188311201 H 0.0 **** 0.06
28698 H 140.1168393331022 125.8257153226819 82.51287988282748 H 0.0 **** 0.06
28699 H 141.17001702328798 127.08434709957979 81.82380846756367 H 0.0 **** 0.06
28700 H 141.82785665503917 125.46896353812025 82.17405906643809 H 0.0 **** 0.06
28701 C 12.124161472437834 49.080426999804615 133.76745152353448 C 0.0 **** -0.24
28702 H 11.396957601266251 49.7656164934873 133.33238862239722 H 0.0 **** 0.06
28703 H 11.957243294975171 49.009454664451795 134.84267528294362 H 0.0 **** 0.06
28704 H 13.130956947165032 49.45146929872453 133.57900444409603 H 0.0 **** 0.06
28705 H 12.009066826940511 48.09553883474379 133.31573329651138 H 0.0 **** 0.06
28706 C 139.1733139840961 141.8483328984944 18.697913155816387 C 0.0 **** -0.24
28707 H 139.6698530665812 142.5545699233436 19.36274925356198 H 0.0 **** 0.06
28708 H 138.22523613899173 142.26847354395272 18.364196131440956 H 0.0 **** 0.06
28709 H 138.99037583613983 140.91463399637564 19.23206849366182 H 0.0 **** 0.06
28710 H 139.8094951544536 141.6534511340173 17.834136278490327 H 0.0 **** 0.06
28711 C 95.23593598177617 4.886576369895067 2.7074068444156225 C 0.0 **** -0.24
28712 H 95.50759482045554 5.909743818911409 2.446992339966286 H 0.0 **** 0.06
28713 H 96.120554920072 4.250956002041221 2.652534425747554 H 0.0 **** 0.06
28714 H 94.48278278203672 4.522616628368155 2.0089067332569925 H 0.0 **** 0.06
28715 H 94.8343798697024 4.86426760068116 3.720242392688945 H 0.0 **** 0.06
28716 C 19.79162196798734 152.38234719782577 59.453423902392984 C 0.0 **** -0.24
28717 H 19.658493518230785 151.63057160627514 60.23008153024378 H 0.0 **** 0.06
28718 H 20.345297122342316 151.94917739204686 58.61982170207445 H 0.0 **** 0.06
28719 H 20.34732612816805 153.2285598210043 59.85800510897916 H 0.0 **** 0.06
28720 H 18.815640582238217 152.7219621628235 59.10540106814224 H 0.0 **** 0.06
28721 C 7.0863432430237765 79.32597657898435 110.88735216516835 C 0.0 **** -0.24
28722 H 6.974283714490241 79.17953991834736 111.9615168705119 H 0.0 **** 0.06
28723 H 7.2975778566893155 78.36847683164638 110.40979581299112 H 0.0 **** 0.06
28724 H 7.909955328276681 80.01555295497678 110.69942280921535 H 0.0 **** 0.06
28725 H 6.1655049739289325 79.74140920410079 110.47969859899158 H 0.0 **** 0.06
28726 C 64.57477471318751 79.28624862793968 75.8615990027826 C 0.0 **** -0.24
28727 H 64.9990864914086 78.29986257783065 76.05292065911416 H 0.0 **** 0.06
28728 H 63.53398867695644 79.3019230428779 76.18627671897832 H 0.0 **** 0.06
28729 H 64.62698609692367 79.50219080300982 74.79477531291683 H 0.0 **** 0.06
28730 H 65.13966733667617 80.03779780271476 76.41290654918429 H 0.0 **** 0.06
28731 C 137.29568877266237 137.97631803648122 147.45520441250522 C 0.0 **** -0.24
28732 H 136.5803572403883 137.27597198478716 147.88805323850374 H 0.0 **** 0.06
28733 H 138.2138547873755 137.96644128538145 148.04244411768434 H 0.0 **** 0.06
28734 H 136.87013466124213 138.98058884145965 147.46260393808626 H 0.0 **** 0.06
28735 H 137.51538154435417 137.681916223453 146.42964335994427 H 0.0 **** 0.06
28736 C 16.050946695825417 159.00748092122623 90.4383549869737 C 0.0 **** -0.24
28737 H 15.505254790315803 159.17210619498994 91.36705499082558 H 0.0 **** 0.06
28738 H 15.355651806795834 159.03750440056015 89.59899422613086 H 0.0 **** 0.06
28739 H 16.538465371333217 158.03332544148017 90.47173893715174 H 0.0 **** 0.06
28740 H 16.80376648768734 159.7865005159415 90.31621694722082 H 0.0 **** 0.06
28741 C 147.07093960151735 134.71132320357464 111.1110923756629 C 0.0 **** -0.24
28742 H 146.4216478101976 135.5857197728983 111.13044741512942 H 0.0 **** 0.06
28743 H 147.23063982917003 134.40106302313765 110.07800557304279 H 0.0 **** 0.06
28744 H 146.60330948159796 133.89903439522442 111.66744371801343 H 0.0 **** 0.06
28745 H 148.02906985180624 134.95980153301159 111.56821141663431 H 0.0 **** 0.06
28746 C 118.62286149767121 134.60301292021467 22.315521677321726 C 0.0 **** -0.24
28747 H 119.3022640470893 134.64490924372717 23.166817588382457 H 0.0 **** 0.06
28748 H 117.79654113257195 135.29502102395753 22.47539746813993 H 0.0 **** 0.06
28749 H 118.23442206898747 133.5897078048988 22.21071506413938 H 0.0 **** 0.06
28750 H 119.15996842479936 134.88125039884403 21.407897328871627 H 0.0 **** 0.06
28751 C 69.3938550310153 160.41885396071265 126.25958818939657 C 0.0 **** -0.24
28752 H 69.44343093213641 159.38376402970692 125.9240634202992 H 0.0 **** 0.06
28753 H 70.40366964732205 160.8129045736423 126.37423727298764 H 0.0 **** 0.06
28754 H 68.87380210961632 160.46571803975363 127.21671962893583 H 0.0 **** 0.06
28755 H 68.85244195749416 161.01375560604404 125.52373848705003 H 0.0 **** 0.06
28756 C 110.79950556167029 46.60396812303817 102.69513445873713 C 0.0 **** -0.24
28757 H 109.74048434877398 46.48418588100128 102.92550625924181 H 0.0 **** 0.06
28758 H 111.20058049936378 47.445399162644605 103.26019247127118 H 0.0 **** 0.06
28759 H 110.91957871431569 46.790643613817124 101.62799643886592 H 0.0 **** 0.06
28760 H 111.33478571756459 45.69462357232133 102.96732828890364 H 0.0 **** 0.06
28761 C 17.34177224111361 35.78166649936901 150.74451429387474 C 0.0 **** -0.24
28762 H 18.25218618346402 35.23581676819242 150.99531187923927 H 0.0 **** 0.06
28763 H 17.568666041018986 36.84403915035932 150.6596356374316 H 0.0 **** 0.06
28764 H 16.598710106562777 35.62873595276119 151.52730914177152 H 0.0 **** 0.06
28765 H 16.94973395768318 35.41586517883775 149.79468310789213 H 0.0 **** 0.06
28766 C 103.35883840703778 23.88824346938619 47.76801944316493 C 0.0 **** -0.24
28767 H 103.7563775723591 23.80685059264968 48.77984980367259 H 0.0 **** 0.06
28768 H 102.27761503635242 23.749256232430852 47.78987004471088 H 0.0 **** 0.06
28769 H 103.81127645312094 23.123023248235377 47.13768328846366 H 0.0 **** 0.06
28770 H 103.59074704609523 24.87448532627959 47.365746843984326 H 0.0 **** 0.06
28771 C 42.029433945604666 132.87983016319308 13.327922797653066 C 0.0 **** -0.24
28772 H 41.45034578778922 131.9562919938023 13.328049303970957 H 0.0 **** 0.06
28773 H 41.713927810155354 133.50524019718983 12.492001710271083 H 0.0 **** 0.06
28774 H 43.089082638359656 132.6449174948361 13.226915142938367 H 0.0 **** 0.06
28775 H 41.862294602959395 133.41253987825777 14.26398777959259 H 0.0 **** 0.06
28776 C 123.1955058436042 74.86950394178662 67.114718406818 C 0.0 **** -0.24
28777 H 122.75749185029574 74.05705040375234 66.53422906984946 H 0.0 **** 0.06
28778 H 123.75023956094404 74.4540740066035 67.95684807005793 H 0.0 **** 0.06
28779 H 122.40308765214098 75.51895626398878 67.48558889837904 H 0.0 **** 0.06
28780 H 123.87090690646912 75.44434521098276 66.48205045404383 H 0.0 **** 0.06
28781 C 29.439729422945767 81.93776646584006 26.0009475995291 C 0.0 **** -0.24
28782 H 29.541445170658164 80.91925321537616 25.624270594079093 H 0.0 **** 0.06
28783 H 30.30594033934203 82.1861161069215 26.613607323457074 H 0.0 **** 0.06
28784 H 28.534026644800207 82.01294145394621 26.6013982686691 H 0.0 **** 0.06
28785 H 29.37782624073248 82.62978030592697 25.160901942549373 H 0.0 **** 0.06
28786 C 22.589904759384048 55.85902900290969 79.83897032090717 C 0.0 **** -0.24
28787 H 23.479847505033277 56.4436879386015 79.60654251150308 H 0.0 **** 0.06
28788 H 22.764616905208186 54.81424002400695 79.57959308542912 H 0.0 **** 0.06
28789 H 21.744950603749388 56.23977498852051 79.26620615375617 H 0.0 **** 0.06
28790 H 22.37248897110903 55.93755979547697 80.90376566231701 H 0.0 **** 0.06
28791 C 55.690668697045396 13.597303805407051 108.7199829861118 C 0.0 **** -0.24
28792 H 56.45374795182687 13.63104688393338 109.49781865139468 H 0.0 **** 0.06
28793 H 56.128984188505 13.895421450296908 107.76781165633216 H 0.0 **** 0.06
28794 H 54.8796852929965 14.280226000584548 108.97649829395726 H 0.0 **** 0.06
28795 H 55.29900660095666 12.583354456458068 108.63912277334379 H 0.0 **** 0.06
28796 C 126.40308807111421 103.29139086679328 149.63392461564658 C 0.0 **** -0.24
28797 H 127.04528948390148 102.58901907835946 150.16483803374544 H 0.0 **** 0.06
28798 H 126.6213371577764 104.30538877234778 149.9674323485576 H 0.0 **** 0.06
28799 H 125.35912682926073 103.05617572009362 149.84187563371842 H 0.0 **** 0.06
28800 H 126.58656084105573 103.21257648839435 148.56202400702202 H 0.0 **** 0.06
28801 C 141.87860633654725 152.11730607526044 21.99427922281094 C 0.0 **** -0.24
28802 H 141.28723059869841 151.3004096281017 21.581114877086755 H 0.0 **** 0.06
28803 H 142.20880278322542 152.7721188415257 21.18619538722683 H 0.0 **** 0.06
28804 H 142.7476910746563 151.71135334206417 22.511723852544186 H 0.0 **** 0.06
28805 H 141.27098289260937 152.6869054819074 22.697391674455204 H 0.0 **** 0.06
28806 C 162.68277928643118 67.03247739900203 148.29334928583873 C 0.0 **** -0.24
28807 H 162.07883951089306 67.90026054425864 148.02713314596258 H 0.0 **** 0.06
28808 H 162.05394661972997 66.14137853034826 148.30384617208452 H 0.0 **** 0.06
28809 H 163.11894416050131 67.18144063156828 149.28056759073178 H 0.0 **** 0.06
28810 H 163.47891935755158 66.90693847283954 147.55944818600855 H 0.0 **** 0.06
28811 C 12.759309682846435 14.887917712079272 70.65442166594426 C 0.0 **** -0.24
28812 H 12.541882090265716 14.110057009294735 71.3859815113716 H 0.0 **** 0.06
28813 H 13.655733630089514 14.620532081411419 70.09477991241803 H 0.0 **** 0.06
28814 H 12.920923868886575 15.835159593950202 71.16897927168742 H 0.0 **** 0.06
28815 H 11.917239170424324 14.986895804389043 69.96890546141088 H 0.0 **** 0.06
28816 C 155.1132001327442 94.33211935809754 80.86823156426601 C 0.0 **** -0.24
28817 H 155.58500653868543 94.53806975699092 81.82864396708666 H 0.0 **** 0.06
28818 H 155.54765442886517 94.97752275253384 80.10479146839313 H 0.0 **** 0.06
28819 H 154.042452583998 94.52410862144643 80.94055500630736 H 0.0 **** 0.06
28820 H 155.27768697942835 93.28877630141898 80.59893581527697 H 0.0 **** 0.06
28821 C 64.27384401760771 78.51530944580412 80.91787658956582 C 0.0 **** -0.24
28822 H 63.660903363162404 79.31783717043231 81.3269619485415 H 0.0 **** 0.06
28823 H 64.70340052261663 78.83455531978805 79.96869582960143 H 0.0 **** 0.06
28824 H 63.655469667874044 77.63150602817021 80.75794670563972 H 0.0 **** 0.06
28825 H 65.07478522888728 78.27620954845264 81.61813818313466 H 0.0 **** 0.06
28826 C 51.60009972364071 48.36824203169212 138.70105511527163 C 0.0 **** -0.24
28827 H 52.121466076876914 49.22233048756033 138.26654625333543 H 0.0 **** 0.06
28828 H 50.75281666339794 48.721706158788095 139.28854756516887 H 0.0 **** 0.06
28829 H 52.28395661995302 47.81504244707216 139.3450984618784 H 0.0 **** 0.06
28830 H 51.24323600711938 47.7166795327272 137.90379453315043 H 0.0 **** 0.06
28831 C 110.49031683914899 74.39949751259405 125.95944205064282 C 0.0 **** -0.24
28832 H 111.34020978216523 75.07327118586949 125.8496883010873 H 0.0 **** 0.06
28833 H 109.8711933456567 74.4466982191907 125.06290644861744 H 0.0 **** 0.06
28834 H 109.89916413072785 74.69808256872068 126.82590170559487 H 0.0 **** 0.06
28835 H 110.85034636992208 73.38076778318054 126.09970359629301 H 0.0 **** 0.06
28836 C 47.63450284254917 90.88079915233224 37.92537453843134 C 0.0 **** -0.24
28837 H 47.30895440916886 91.7955582910035 38.41974662857375 H 0.0 **** 0.06
28838 H 47.065250290260636 90.74160157277656 37.0060245303484 H 0.0 **** 0.06
28839 H 47.46873966398607 90.03066212976286 38.58756747537434 H 0.0 **** 0.06
28840 H 48.69617655868531 90.95419596558389 37.687543265574675 H 0.0 **** 0.06
28841 C 4.800093027717196 108.09064778539866 39.367374929831996 C 0.0 **** -0.24
28842 H 5.776761462517072 108.10041803289658 38.88423401301675 H 0.0 **** 0.06
28843 H 4.561540149476514 107.07445243248611 39.68389417803883 H 0.0 **** 0.06
28844 H 4.043887579987 108.43877908860222 38.66378572313063 H 0.0 **** 0.06
28845 H 4.8174299148208775 108.74750670954933 40.23604494151185 H 0.0 **** 0.06
28846 C 139.8465074020072 11.03415340508684 8.931102174030627 C 0.0 **** -0.24
28847 H 139.80646112434658 9.947167753765768 9.008583635319354 H 0.0 **** 0.06
28848 H 140.5316268256308 11.426493421869196 9.682062570537283 H 0.0 **** 0.06
28849 H 138.85037856740644 11.446108730312346 9.095971949260388 H 0.0 **** 0.06
28850 H 140.19568091404878 11.314354778869841 7.937277790590372 H 0.0 **** 0.06
28851 C 33.19841147376843 141.4135838172726 91.52970582522708 C 0.0 **** -0.24
28852 H 32.69400721925143 140.5549742009863 91.97175525544154 H 0.0 **** 0.06
28853 H 33.92298530972107 141.8138719947252 92.23883344920057 H 0.0 **** 0.06
28854 H 32.463706021576854 142.18155936637496 91.28721186891195 H 0.0 **** 0.06
28855 H 33.71267216096976 141.10381968520963 90.61963989346111 H 0.0 **** 0.06
28856 C 131.26891645869983 7.715059208165201 17.340974666828544 C 0.0 **** -0.24
28857 H 130.95322265375285 6.671911840941618 17.304342991578068 H 0.0 **** 0.06
28858 H 130.93539949725113 8.227564346312192 16.438826804470835 H 0.0 **** 0.06
28859 H 132.35597772639204 7.763461290175826 17.40698151263058 H 0.0 **** 0.06
28860 H 130.8299117426641 8.196090264810266 18.215537908765327 H 0.0 **** 0.06
28861 C 114.60613703823873 53.943743159351584 74.75310276685286 C 0.0 **** -0.24
28862 H 113.72465542873013 54.18339127309875 75.34851257134599 H 0.0 **** 0.06
28863 H 115.35132164234886 54.73061639438737 74.87447948157632 H 0.0 **** 0.06
28864 H 114.32575193737188 53.86772900111674 73.70302664236073 H 0.0 **** 0.06
28865 H 115.02217585571884 52.99320611080799 75.08875573183872 H 0.0 **** 0.06
28866 C 73.4668308345036 81.64083130924416 70.38749313592476 C 0.0 **** -0.24
28867 H 72.5531439234049 81.04916486736244 70.44822961938007 H 0.0 **** 0.06
28868 H 73.24409722126855 82.60829283491938 69.93698586266237 H 0.0 **** 0.06
28869 H 74.20049820954405 81.11459350081657 69.77634599686775 H 0.0 **** 0.06
28870 H 73.86971432311734 81.7907875563152 71.3897325834613 H 0.0 **** 0.06
28871 C 87.68551046797961 80.02450381810557 78.53980503773481 C 0.0 **** -0.24
28872 H 87.32585862969768 79.75904756779194 77.54477818161452 H 0.0 **** 0.06
28873 H 86.93394631753785 80.62765527183578 79.0488094543996 H 0.0 **** 0.06
28874 H 88.61079596082894 80.59469639937548 78.45102967721989 H 0.0 **** 0.06
28875 H 87.87292313681002 79.11580782051715 79.11126361957021 H 0.0 **** 0.06
28876 C 109.56880109857752 108.42022957455222 34.882658130390894 C 0.0 **** -0.24
28877 H 109.14504491339852 107.92395883343366 35.75507767898354 H 0.0 **** 0.06
28878 H 109.19669910299876 107.9427436841022 33.97662989561647 H 0.0 **** 0.06
28879 H 110.65590191338288 108.3432893939007 34.91365651843469 H 0.0 **** 0.06
28880 H 109.2796247529327 109.4705967998809 34.88605708283745 H 0.0 **** 0.06
28881 C 70.15281321252532 73.78062988664198 162.3049680830456 C 0.0 **** -0.24
28882 H 70.83520864031613 73.64134847019625 163.1424870229765 H 0.0 **** 0.06
28883 H 70.0881104719164 74.84155783012199 162.0608977101832 H 0.0 **** 0.06
28884 H 69.16382097996484 73.40936696880124 162.5759073812921 H 0.0 **** 0.06
28885 H 70.5221617023979 73.23009451516262 161.44016733597812 H 0.0 **** 0.06
28886 C 151.49881409917265 112.0859499402388 50.81736105254578 C 0.0 **** -0.24
28887 H 151.91597600648257 113.0321074431404 51.16468342740667 H 0.0 **** 0.06
28888 H 150.55206457441346 112.27151868588916 50.3102058197703 H 0.0 **** 0.06
28889 H 151.33213592443488 111.42807060257726 51.66980342196315 H 0.0 **** 0.06
28890 H 152.19657170046554 111.61447178140438 50.12515621465117 H 0.0 **** 0.06
28891 C 124.36086600062629 56.646398683436075 58.8500551244893 C 0.0 **** -0.24
28892 H 124.33710948492808 55.749408388240795 59.46924242060834 H 0.0 **** 0.06
28893 H 123.40939138387841 56.753059521361706 58.328476372969476 H 0.0 **** 0.06
28894 H 125.16709452321561 56.56300287323444 58.12129826351878 H 0.0 **** 0.06
28895 H 124.53016423988402 57.51927970072748 59.480108038992796 H 0.0 **** 0.06
28896 C 135.38819632555834 138.7134034741285 130.7879206668198 C 0.0 **** -0.24
28897 H 135.5327621454929 137.98379562673196 129.99102734047597 H 0.0 **** 0.06
28898 H 135.91043425847977 139.63649702440608 130.53401767168668 H 0.0 **** 0.06
28899 H 135.7853981420695 138.31478889759896 131.72075449672158 H 0.0 **** 0.06
28900 H 134.32341181819464 138.91721419860676 130.90311620336047 H 0.0 **** 0.06
28901 C 96.38850729994208 77.63920733468991 15.26899250021728 C 0.0 **** -0.24
28902 H 96.12387766267065 78.62454656330235 15.654962278368657 H 0.0 **** 0.06
28903 H 95.69701219981657 77.36454591701768 14.472501768931068 H 0.0 **** 0.06
28904 H 96.32765962460543 76.9061101535414 16.073012352958898 H 0.0 **** 0.06
28905 H 97.40414724394202 77.66551789843528 14.875204372338317 H 0.0 **** 0.06
28906 C 37.108061849138096 81.47605789715521 104.91623150937096 C 0.0 **** -0.24
28907 H 37.69454245471377 80.96454556541592 105.67926000232433 H 0.0 **** 0.06
28908 H 36.516230366019045 80.74596061535091 104.36296904910097 H 0.0 **** 0.06
28909 H 37.776851040099245 81.99584272173321 104.2308370364567 H 0.0 **** 0.06
28910 H 36.44363322238058 82.19781924380415 105.39198358107677 H 0.0 **** 0.06
28911 C 81.42678360238261 92.36967807919191 145.0058179205835 C 0.0 **** -0.24
28912 H 81.1686469307858 93.06935391113296 144.21159313450022 H 0.0 **** 0.06
28913 H 82.29426525662274 92.74313470861836 145.55162524524644 H 0.0 **** 0.06
28914 H 81.66150593062619 91.39771408211678 144.57259020379695 H 0.0 **** 0.06
28915 H 80.58334082604546 92.26890348962358 145.68902991397994 H 0.0 **** 0.06
28916 C 35.64893149314827 130.82098220169655 130.19686790551134 C 0.0 **** -0.24
28917 H 35.243920158932156 130.85859223477166 131.20862340489157 H 0.0 **** 0.06
28918 H 35.83671700868767 131.8351596428421 129.84363343837674 H 0.0 **** 0.06
28919 H 34.93209496723689 130.33272010437747 129.5362020335209 H 0.0 **** 0.06
28920 H 36.58229075719497 130.25788585919491 130.20016238328463 H 0.0 **** 0.06
28921 C 111.76669024728139 22.7665197125842 49.170731333089805 C 0.0 **** -0.24
28922 H 112.26970999016501 23.43034153079344 48.46829802121812 H 0.0 **** 0.06
28923 H 111.95557865057273 21.72985652395562 48.889604139503916 H 0.0 **** 0.06
28924 H 110.6946175332665 22.960014941362118 49.14782884086878 H 0.0 **** 0.06
28925 H 112.14776933862021 22.94591093320406 50.17611652048089 H 0.0 **** 0.06
28926 C 46.563766328844 27.531651359246133 60.036528751157334 C 0.0 **** -0.24
28927 H 47.05021318900674 26.635897978889787 59.64880819864942 H 0.0 **** 0.06
28928 H 47.09187040281665 27.87586174505116 60.926496836524336 H 0.0 **** 0.06
28929 H 45.52979233673284 27.299214954446228 60.293931152039534 H 0.0 **** 0.06
28930 H 46.58158303894288 28.312262774722896 59.277155861889355 H 0.0 **** 0.06
28931 C 13.51435585656941 42.47342860953057 19.396943827473535 C 0.0 **** -0.24
28932 H 14.25956100203021 42.64483821549051 18.620402210556364 H 0.0 **** 0.06
28933 H 12.67052412970466 41.92629170780083 18.976038734151103 H 0.0 **** 0.06
28934 H 13.168716104577442 43.43064219484312 19.78674397725058 H 0.0 **** 0.06
28935 H 13.958452991156037 41.89124053752697 20.203898359525795 H 0.0 **** 0.06
28936 C 55.046351927684 60.32329122196134 40.81314938838041 C 0.0 **** -0.24
28937 H 55.204482951081246 59.8660413930356 39.83600351734694 H 0.0 **** 0.06
28938 H 55.458624435115226 61.33308539639759 40.81306222076893 H 0.0 **** 0.06
28939 H 55.54379581036865 59.72746906105398 41.57788356901433 H 0.0 **** 0.06
28940 H 53.9772823061588 60.36728879080523 41.02465413719656 H 0.0 **** 0.06
28941 C 94.31127844529058 130.17575491185627 148.17172096576562 C 0.0 **** -0.24
28942 H 95.22630877485338 129.63214554904923 147.9409393575785 H 0.0 **** 0.06
28943 H 94.22511163445442 131.0394671919915 147.51238172435734 H 0.0 **** 0.06
28944 H 94.33986388033473 130.51046824860472 149.20871504201332 H 0.0 **** 0.06
28945 H 93.45227662363534 129.51977404867932 148.0259578912999 H 0.0 **** 0.06
28946 C 105.3943468675264 100.77944295467486 93.59214867124284 C 0.0 **** -0.24
28947 H 105.20809417040803 101.48800819787508 94.39923360234988 H 0.0 **** 0.06
28948 H 104.841155542054 99.85917201665143 93.78357922811168 H 0.0 **** 0.06
28949 H 106.45990005004253 100.55859272240403 93.54161744637013 H 0.0 **** 0.06
28950 H 105.06719398324327 101.21062253312425 92.6468132957692 H 0.0 **** 0.06
28951 C 31.72903996798184 24.958984083589826 144.81054150849255 C 0.0 **** -0.24
28952 H 32.6181868384334 25.144794919285914 145.41393695507756 H 0.0 **** 0.06
28953 H 31.702951614317776 23.909526503018583 144.51609616630103 H 0.0 **** 0.06
28954 H 31.756637359972288 25.585948550907574 143.9196168308606 H 0.0 **** 0.06
28955 H 30.83969839909595 25.1948596026553 145.39441919298977 H 0.0 **** 0.06
28956 C 0.3861923657116222 31.155783901136488 137.1946282668826 C 0.0 **** -0.24
28957 H 0.1316133467236682 30.181220733343253 137.6100244414879 H 0.0 **** 0.06
28958 H -0.5051641991346969 31.78357571699223 137.16900011471995 H 0.0 **** 0.06
28959 H 0.7707226566548684 31.029036777160854 136.18213060894692 H 0.0 **** 0.06
28960 H 1.1474680257249474 31.628219854846577 137.8154055981227 H 0.0 **** 0.06
28961 C 136.0434401106941 17.41342016351507 39.78220515448379 C 0.0 **** -0.24
28962 H 136.18283120254154 17.44552822693177 38.7013887651467 H 0.0 **** 0.06
28963 H 136.05909113677865 16.377209538309103 40.12019397807299 H 0.0 **** 0.06
28964 H 135.08488457807985 17.864525218538915 40.038332800030304 H 0.0 **** 0.06
28965 H 136.84639399976194 17.967234285847752 40.26904685014904 H 0.0 **** 0.06
28966 C 27.684773061720364 83.10572956705272 19.984162843302755 C 0.0 **** -0.24
28967 H 27.586930967657395 82.39799730886675 20.80720343997217 H 0.0 **** 0.06
28968 H 26.947122951202232 82.87358034682359 19.215199939900998 H 0.0 **** 0.06
28969 H 28.686987348809794 83.03386791073441 19.560344114664503 H 0.0 **** 0.06
28970 H 27.51932621579374 84.11800458158136 20.35420543447941 H 0.0 **** 0.06
28971 C 40.56665603134644 25.690307991977633 76.64095877867982 C 0.0 **** -0.24
28972 H 41.0280242179316 26.468987016745245 77.24919332254501 H 0.0 **** 0.06
28973 H 41.07863699890606 25.628736796107916 75.68098622005704 H 0.0 **** 0.06
28974 H 39.516668856219894 25.930956455498553 76.47849319747968 H 0.0 **** 0.06
28975 H 40.64401281030058 24.732812392841005 77.15748952032908 H 0.0 **** 0.06
28976 C 98.65671969229913 73.96757188553812 157.48453510721106 C 0.0 **** -0.24
28977 H 98.44531278359608 72.95814742165895 157.83579881701866 H 0.0 **** 0.06
28978 H 97.79163389339121 74.60446129927534 157.66804880787026 H 0.0 **** 0.06
28979 H 98.8705376894712 73.9434774687132 156.4159850714426 H 0.0 **** 0.06
28980 H 99.5203593365267 74.36396183897143 158.01820018610312 H 0.0 **** 0.06
28981 C 1.688583466869872 80.2748028376671 114.9327017129724 C 0.0 **** -0.24
28982 H 1.077833072150554 81.11840511056204 115.25352097898576 H 0.0 **** 0.06
28983 H 1.7655785516511386 80.27409549211126 113.84545881914141 H 0.0 **** 0.06
28984 H 1.2277472564690086 79.3451191828944 115.26570040527304 H 0.0 **** 0.06
28985 H 2.6851462620642295 80.36182337630976 115.36715644939659 H 0.0 **** 0.06
28986 C 130.98334368295968 77.69248930834466 37.758935247137515 C 0.0 **** -0.24
28987 H 130.28963928126052 77.87638568982564 36.93958603722824 H 0.0 **** 0.06
28988 H 131.9416632485687 78.16077021749663 37.53552208649488 H 0.0 **** 0.06
28989 H 131.12304961559 76.61834521816454 37.882816635391166 H 0.0 **** 0.06
28990 H 130.5786222623983 78.11449987734109 38.679171915709745 H 0.0 **** 0.06
28991 C 157.5450891455567 67.95653197142647 58.88237067532005 C 0.0 **** -0.24
28992 H 157.73416443528384 68.30133022582382 59.8989755912291 H 0.0 **** 0.06
28993 H 158.1390409449861 67.06367945386384 58.68438954062431 H 0.0 **** 0.06
28994 H 157.81952769989368 68.73968960233451 58.17621740804128 H 0.0 **** 0.06
28995 H 156.48678897877159 67.7209380541132 58.76964923873881 H 0.0 **** 0.06
28996 C 117.41641933947005 112.83159104619995 90.82793852674955 C 0.0 **** -0.24
28997 H 117.43190896817234 112.40372934644711 89.82608810865884 H 0.0 **** 0.06
28998 H 116.42039905440751 113.22013934805943 91.0406958309678 H 0.0 **** 0.06
28999 H 118.14356974949146 113.64071843306846 90.88807983729323 H 0.0 **** 0.06
29000 H 117.6693477191634 112.06121367203411 91.55619863372763 H 0.0 **** 0.06
29001 C 91.99625543288377 84.70398332531288 50.24674122083205 C 0.0 **** -0.24
29002 H 91.30211866879671 84.29990957417834 50.98347414767477 H 0.0 **** 0.06
29003 H 91.91889521264852 84.13110394134118 49.32236820093678 H 0.0 **** 0.06
29004 H 93.01394724297734 84.63734513586381 50.63198478118555 H 0.0 **** 0.06
29005 H 91.75081660168067 85.74703394074884 50.05020366451295 H 0.0 **** 0.06
29006 C 63.974794622341506 48.974769043557785 18.787839491263554 C 0.0 **** -0.24
29007 H 64.20467262634149 47.96203971604612 19.116844394466284 H 0.0 **** 0.06
29008 H 63.223860496226806 49.409440365307006 19.448254257113327 H 0.0 **** 0.06
29009 H 63.58908067048982 48.946823990078144 17.76800189478319 H 0.0 **** 0.06
29010 H 64.87947039747606 49.58107520315076 18.81613084534417 H 0.0 **** 0.06
29011 C 56.08873202116675 132.85812460240675 44.38081113479065 C 0.0 **** -0.24
29012 H 57.10579827300646 132.75382858823548 44.005522742255394 H 0.0 **** 0.06
29013 H 55.847284356124774 133.91636390750506 44.486667133427645 H 0.0 **** 0.06
29014 H 56.007203035977696 132.36810078794502 45.35063355065476 H 0.0 **** 0.06
29015 H 55.39401101830457 132.39523878846455 43.67969108912274 H 0.0 **** 0.06
29016 C 154.871606288393 140.12605107174232 152.77082748081267 C 0.0 **** -0.24
29017 H 153.86625081019884 139.86784744289534 153.10300378007292 H 0.0 **** 0.06
29018 H 154.83336334278437 140.49111579034553 151.74385565861144 H 0.0 **** 0.06
29019 H 155.50847812482544 139.24281178490781 152.81985280715514 H 0.0 **** 0.06
29020 H 155.27961896481293 140.90332403102656 153.41819314801631 H 0.0 **** 0.06
29021 C 0.23896138447770454 25.747272045684042 54.72163483841081 C 0.0 **** -0.24
29022 H 0.20333574420411082 26.512822521476323 53.94644702682933 H 0.0 **** 0.06
29023 H 0.27450627904252656 24.76104408673129 54.25797995276912 H 0.0 **** 0.06
29024 H -0.6506884895109124 25.8224398515205 55.34694656849672 H 0.0 **** 0.06
29025 H 1.1278462814616432 25.89328018941322 55.3353563692246 H 0.0 **** 0.06
29026 C 109.93441479286511 31.40591145009776 162.2003803930349 C 0.0 **** -0.24
29027 H 109.72569111727643 30.377287454118004 162.4939735636506 H 0.0 **** 0.06
29028 H 109.5087742069546 31.595920115609204 161.21577051437885 H 0.0 **** 0.06
29029 H 111.01267196216557 31.561502903984547 162.1667555735578 H 0.0 **** 0.06
29030 H 109.49108306972101 32.08804952918524 162.92672502222288 H 0.0 **** 0.06
29031 C 89.4420273285507 79.85721630316334 39.2921644612814 C 0.0 **** -0.24
29032 H 88.92960055553505 80.2471717819837 38.41365986147619 H 0.0 **** 0.06
29033 H 89.68817325494518 80.67966098567632 39.96495776524819 H 0.0 **** 0.06
29034 H 90.35769712944597 79.35280802537454 38.984037941093035 H 0.0 **** 0.06
29035 H 88.7929998143249 79.14858798963576 39.806683708264174 H 0.0 **** 0.06
29036 C 80.7357201178744 99.47946992026257 56.79063538540697 C 0.0 **** -0.24
29037 H 80.22023352417848 100.32351336212551 56.33314869097198 H 0.0 **** 0.06
29038 H 81.74143988464837 99.7830250734475 57.08186705541023 H 0.0 **** 0.06
29039 H 80.79689484457776 98.65994247337738 56.074285411386526 H 0.0 **** 0.06
29040 H 80.18543227356233 99.15204287481194 57.672086825026 H 0.0 **** 0.06
29041 C 94.6340504205412 14.701702155355179 30.820500729383582 C 0.0 **** -0.24
29042 H 94.13971341220984 14.506773584584835 31.772769422024567 H 0.0 **** 0.06
29043 H 94.46130001625045 13.864404801970693 30.143542585680848 H 0.0 **** 0.06
29044 H 95.70458567889851 14.822883975697039 30.98490289657974 H 0.0 **** 0.06
29045 H 94.22849057069305 15.613859899350587 30.381335210885 H 0.0 **** 0.06
29046 C 75.72185125524464 9.777952807120869 92.11120940135342 C 0.0 **** -0.24
29047 H 75.23020742636487 8.973979096089693 91.56261711036416 H 0.0 **** 0.06
29048 H 75.08959612481249 10.666875307410464 92.09577707257898 H 0.0 **** 0.06
29049 H 76.67856975987382 10.004160169595423 91.64132562542466 H 0.0 **** 0.06
29050 H 75.88734491526532 9.466630235694026 93.14178201366337 H 0.0 **** 0.06
29051 C 101.02148209138477 123.74397733038927 53.867525165676795 C 0.0 **** -0.24
29052 H 100.29331740441125 123.29289996907653 53.19293248945365 H 0.0 **** 0.06
29053 H 101.82990613770255 123.03744223315559 54.053456738487 H 0.0 **** 0.06
29054 H 100.53504759468547 123.99644578821508 54.809458814566526 H 0.0 **** 0.06
29055 H 101.42516435460243 124.64779629903833 53.412827779736915 H 0.0 **** 0.06
29056 C 142.3137074441094 150.5208495041557 40.798729929996384 C 0.0 **** -0.24
29057 H 141.31082139539376 150.61734240638089 41.21572222647927 H 0.0 **** 0.06
29058 H 142.9020426836542 149.84754446528348 41.421915150030344 H 0.0 **** 0.06
29059 H 142.79174907249347 151.50081957063378 40.7710031834834 H 0.0 **** 0.06
29060 H 142.25025441463993 150.1193417919211 39.788089003880884 H 0.0 **** 0.06
29061 C 27.259531717319703 33.65887610125327 24.358096240535815 C 0.0 **** -0.24
29062 H 28.095022754118787 33.32737862010691 24.97477606603934 H 0.0 **** 0.06
29063 H 26.812664576484565 34.54892573197478 24.801436154215253 H 0.0 **** 0.06
29064 H 26.51276779696022 32.867405925408946 24.300969705108855 H 0.0 **** 0.06
29065 H 27.618357267387438 33.89302459633274 23.355329770437947 H 0.0 **** 0.06
29066 C 28.224897668267857 6.6195757775812325 111.24326904612809 C 0.0 **** -0.24
29067 H 27.331124991193775 7.243894439863105 111.25235107048033 H 0.0 **** 0.06
29068 H 28.043309718087954 5.734868350402088 110.63118857135174 H 0.0 **** 0.06
29069 H 28.46515042068512 6.314441657058936 112.26168970407889 H 0.0 **** 0.06
29070 H 29.058144610266282 7.18490197950964 110.82714088867655 H 0.0 **** 0.06
29071 C 83.2870642890406 81.35854555089662 96.02088494222224 C 0.0 **** -0.24
29072 H 83.01403165560652 81.53508855113608 94.97955230277326 H 0.0 **** 0.06
29073 H 84.16181750486267 81.95915454359864 96.2723656320064 H 0.0 **** 0.06
29074 H 83.51765207422216 80.30244691214729 96.16167486212764 H 0.0 **** 0.06
29075 H 82.45519274556429 81.63907886860378 96.6665866030263 H 0.0 **** 0.06
29076 C 59.60101856133444 34.99647945150133 86.17427786884826 C 0.0 **** -0.24
29077 H 58.95131599127255 35.71295537003175 85.67131992422895 H 0.0 **** 0.06
29078 H 59.99757456932707 34.29057579244477 85.44441471918873 H 0.0 **** 0.06
29079 H 59.02960836607619 34.455494858537406 86.9293712089005 H 0.0 **** 0.06
29080 H 60.42377973737763 35.526242402042385 86.65316938444988 H 0.0 **** 0.06
29081 C 110.10572588982231 13.898227474857713 105.89423548482819 C 0.0 **** -0.24
29082 H 110.06728694785653 14.308430963154755 104.88508217495718 H 0.0 **** 0.06
29083 H 109.86383751608153 14.681544853414444 106.61319499834033 H 0.0 **** 0.06
29084 H 111.10784861668566 13.518253523330593 106.09357364055964 H 0.0 **** 0.06
29085 H 109.38464852586543 13.086175814301036 105.98459241518682 H 0.0 **** 0.06
29086 C 116.16018489831507 38.76582399007192 6.126162058923626 C 0.0 **** -0.24
29087 H 116.93456385024399 38.93357212934146 6.87431019876972 H 0.0 **** 0.06
29088 H 115.19537555840941 39.07863378134773 6.525739130423439 H 0.0 **** 0.06
29089 H 116.12291101580314 37.70561453193025 5.8738221119508225 H 0.0 **** 0.06
29090 H 116.38841511517808 39.345094048942386 5.2315369867647235 H 0.0 **** 0.06
29091 C 77.6673561461215 52.94393338545211 0.9859863854170783 C 0.0 **** -0.24
29092 H 77.96960098801759 53.42795711617882 0.05725233207786573 H 0.0 **** 0.06
29093 H 76.70357884112519 52.4541112560438 0.8430721542700326 H 0.0 **** 0.06
29094 H 77.58222186670247 53.69124908293924 1.7746740601290867 H 0.0 **** 0.06
29095 H 78.414547319789 52.201502362505806 1.2669746283224583 H 0.0 **** 0.06
29096 C 0.3359821418614217 74.25778736573132 39.2979646054618 C 0.0 **** -0.24
29097 H 1.0269517728953304 73.81201167553853 38.5830850128459 H 0.0 **** 0.06
29098 H 0.6290598535396725 75.28977679062731 39.491516008128414 H 0.0 **** 0.06
29099 H 0.3619314309964068 73.6910067438148 40.22879983520906 H 0.0 **** 0.06
29100 H -0.6745602431100792 74.23766027458728 38.88798790861169 H 0.0 **** 0.06
29101 C 141.35818268273053 114.03343890582579 124.01938977057964 C 0.0 **** -0.24
29102 H 140.7880549844979 114.51309532467047 124.81515543409083 H 0.0 **** 0.06
29103 H 140.97430252490116 114.35765939018606 123.05228587341307 H 0.0 **** 0.06
29104 H 141.26142042815997 112.95138463076961 124.1055376286811 H 0.0 **** 0.06
29105 H 142.40823851524996 114.31248475560858 124.10736148115129 H 0.0 **** 0.06
29106 C 77.85046001342148 117.19686990335697 8.63947145996434 C 0.0 **** -0.24
29107 H 78.12105611899595 117.60661555966215 9.612928762432631 H 0.0 **** 0.06
29108 H 77.06601071741868 117.80931039697907 8.192752468860277 H 0.0 **** 0.06
29109 H 77.48878447484279 116.17632083991896 8.763311100828702 H 0.0 **** 0.06
29110 H 78.7258344673421 117.19538921627372 7.989869094022822 H 0.0 **** 0.06
29111 C 36.977380708332646 48.61013907656388 143.86022469680165 C 0.0 **** -0.24
29112 H 37.26041024106223 49.43266398223352 143.20295691597474 H 0.0 **** 0.06
29113 H 37.109744161018966 48.91404253231485 144.89933369389357 H 0.0 **** 0.06
29114 H 37.60500052495183 47.744625315581715 143.65064388585552 H 0.0 **** 0.06
29115 H 35.93154867818953 48.35167383994872 143.6877340910119 H 0.0 **** 0.06
29116 C 90.30427706443758 33.41036867291433 139.41870524035025 C 0.0 **** -0.24
29117 H 90.71918233469653 33.96583966322808 138.5783175818015 H 0.0 **** 0.06
29118 H 90.98126819422507 33.48001940152045 140.26962216679735 H 0.0 **** 0.06
29119 H 90.18012495413552 32.36382672516535 139.13752894341323 H 0.0 **** 0.06
29120 H 89.33604719759161 33.83046200186931 139.68941236898905 H 0.0 **** 0.06
29121 C 76.26067317625325 94.78998778315162 123.65323762101082 C 0.0 **** -0.24
29122 H 76.04993776411584 95.85449976042139 123.5509747697892 H 0.0 **** 0.06
29123 H 75.91847061473237 94.44359426342498 124.62877378753535 H 0.0 **** 0.06
29124 H 77.33436125196772 94.62182614899712 123.5636917278847 H 0.0 **** 0.06
29125 H 75.74124929576789 94.24034048320158 122.86912889587609 H 0.0 **** 0.06
29126 C 142.82123005304567 126.29451977194876 151.42669120170325 C 0.0 **** -0.24
29127 H 143.82587722806704 125.98849339446781 151.1357861474777 H 0.0 **** 0.06
29128 H 142.4890249627796 125.69209631752466 152.27262183640562 H 0.0 **** 0.06
29129 H 142.14043964249106 126.14930031234306 150.58739589737047 H 0.0 **** 0.06
29130 H 142.82948336425483 127.34641550767759 151.709274019161 H 0.0 **** 0.06
29131 C 138.61077135895187 61.035239630990375 160.25232098312654 C 0.0 **** -0.24
29132 H 138.75311366507998 62.0988906191798 160.06271591225175 H 0.0 **** 0.06
29133 H 137.56713719082023 60.77201783905076 160.07788219459044 H 0.0 **** 0.06
29134 H 138.87393796875094 60.812250296863866 161.28612170709272 H 0.0 **** 0.06
29135 H 139.24889661115608 60.45779976886712 159.58256411857127 H 0.0 **** 0.06
29136 C 47.63762677879299 37.82784522865933 36.310404044801345 C 0.0 **** -0.24
29137 H 46.863576776492835 38.586376868500096 36.42527000846435 H 0.0 **** 0.06
29138 H 48.59849851135482 38.31322785183188 36.13603342223348 H 0.0 **** 0.06
29139 H 47.39560626064559 37.18701633702371 35.46277308463736 H 0.0 **** 0.06
29140 H 47.693875269914486 37.22589626206914 37.21676069158818 H 0.0 **** 0.06
29141 C 37.00034817209257 154.11089951076067 88.49093359957192 C 0.0 **** -0.24
29142 H 37.37486372535017 153.38211910102643 89.20991000873376 H 0.0 **** 0.06
29143 H 36.542018182290235 153.58990519330976 87.6506185495371 H 0.0 **** 0.06
29144 H 37.82726340801234 154.72309886502316 88.13109891834378 H 0.0 **** 0.06
29145 H 36.25903830824315 154.74761020752922 88.97353697977374 H 0.0 **** 0.06
29146 C 15.57128237076563 94.18160308222923 98.97056075541778 C 0.0 **** -0.24
29147 H 16.550907761927277 94.62989844922669 98.80644129660007 H 0.0 **** 0.06
29148 H 14.815396676158969 94.75378555675317 98.43164153951349 H 0.0 **** 0.06
29149 H 15.341674624256825 94.19102670175043 100.03672273960694 H 0.0 **** 0.06
29150 H 15.576549911996892 93.15356125802234 98.60891437560147 H 0.0 **** 0.06
29151 C 98.58155534742946 60.796854305029626 103.22678340161394 C 0.0 **** -0.24
29152 H 98.08394075741461 60.05077107249605 103.84651349818401 H 0.0 **** 0.06
29153 H 99.36733757317882 61.283546744265436 103.80592558475033 H 0.0 **** 0.06
29154 H 97.8562641558957 61.54188276198488 102.90041837984654 H 0.0 **** 0.06
29155 H 99.02017955795998 60.30991238520784 102.35570692399193 H 0.0 **** 0.06
29156 C 148.41075600218656 49.439042568001355 126.50570148323263 C 0.0 **** -0.24
29157 H 149.30125745370262 49.48794525333042 127.13087225302687 H 0.0 **** 0.06
29158 H 147.52217581012604 49.54176705174922 127.13029962879614 H 0.0 **** 0.06
29159 H 148.3820011339706 48.48021929541835 125.98820661231935 H 0.0 **** 0.06
29160 H 148.43518402387173 50.24656532101761 125.77375398434611 H 0.0 **** 0.06
29161 C 92.8977500659779 25.12733150815523 46.26436324216303 C 0.0 **** -0.24
29162 H 93.36619781455559 25.982285855643788 46.750605556066674 H 0.0 **** 0.06
29163 H 92.6124633865908 25.400204276728893 45.24714453732126 H 0.0 **** 0.06
29164 H 92.01079200771437 24.831915813812778 46.82332010533672 H 0.0 **** 0.06
29165 H 93.60220779248924 24.296261744346026 46.23378206777056 H 0.0 **** 0.06
29166 C 38.58829232434361 25.985536366251495 100.43825891960873 C 0.0 **** -0.24
29167 H 39.44857454340823 26.599859061909484 100.17379159741964 H 0.0 **** 0.06
29168 H 38.926781126405004 25.104690939068632 100.98487263589698 H 0.0 **** 0.06
29169 H 38.07014868282178 25.67384415551723 99.53158975420232 H 0.0 **** 0.06
29170 H 37.90841291823507 26.56346951577555 101.06509714110658 H 0.0 **** 0.06
29171 C 26.607315945966093 2.914109512017262 64.25942437397023 C 0.0 **** -0.24
29172 H 26.316658835759256 3.129617602945814 65.28785258131192 H 0.0 **** 0.06
29173 H 25.819822793744663 2.3391824353761876 63.772475466266684 H 0.0 **** 0.06
29174 H 27.532665982941296 2.3379996343836638 64.25728516511741 H 0.0 **** 0.06
29175 H 26.76078712604391 3.850145962756301 63.722156076087245 H 0.0 **** 0.06
29176 C 50.41467636268487 139.4513327540376 74.88898681005998 C 0.0 **** -0.24
29177 H 50.314558264376046 139.3420292199668 75.968856690817 H 0.0 **** 0.06
29178 H 51.4651188621051 139.36158960062198 74.6106172642917 H 0.0 **** 0.06
29179 H 50.04044377663098 140.42944861599346 74.58637452502265 H 0.0 **** 0.06
29180 H 49.83843873275811 138.67116467127678 74.39097693944717 H 0.0 **** 0.06
29181 C 153.8015199555287 79.9808571191736 147.84960469784377 C 0.0 **** -0.24
29182 H 152.80765143875297 79.7037948970351 148.20125616619072 H 0.0 **** 0.06
29183 H 154.55219236369274 79.41727818871277 148.40272995468442 H 0.0 **** 0.06
29184 H 153.95785414897063 81.04827850010162 148.00726600895584 H 0.0 **** 0.06
29185 H 153.88634254043873 79.75341323763487 146.78653353643105 H 0.0 **** 0.06
29186 C 95.96992325923962 6.235969926669078 113.5516853678987 C 0.0 **** -0.24
29187 H 96.41917517567971 6.85228972064003 112.77346659474537 H 0.0 **** 0.06
29188 H 96.41283073721189 5.239420024353862 113.52745383292674 H 0.0 **** 0.06
29189 H 94.89668082079432 6.160683126896494 113.38153140014052 H 0.0 **** 0.06
29190 H 96.15208412490067 6.690947391389017 114.5250294827643 H 0.0 **** 0.06
29191 C 4.818543223033203 162.72391245128213 5.784687277281563 C 0.0 **** -0.24
29192 H 4.134920185429564 162.38136060166406 5.006937527558108 H 0.0 **** 0.06
29193 H 5.17590438799246 161.8675066329019 6.356992217933197 H 0.0 **** 0.06
29194 H 4.2964835507118835 163.4131652540009 6.448184919042376 H 0.0 **** 0.06
29195 H 5.66501516454889 163.2330897482694 5.324560588229332 H 0.0 **** 0.06
29196 C 131.58514286800101 133.99781295707373 68.11809802539204 C 0.0 **** -0.24
29197 H 131.78944433920822 133.5892260989374 69.10773308077938 H 0.0 **** 0.06
29198 H 132.44147294514875 134.58351936589963 67.78270619508959 H 0.0 **** 0.06
29199 H 130.70355301430914 134.63755820827544 68.16532320436545 H 0.0 **** 0.06
29200 H 131.40534285424775 133.18200420009492 67.41844892675084 H 0.0 **** 0.06
29201 C 118.79785209007059 147.34380893258106 127.45386107823299 C 0.0 **** -0.24
29202 H 117.81983649093218 147.82454353756526 127.48326507232971 H 0.0 **** 0.06
29203 H 118.66963806556248 146.26149899875452 127.43504009120855 H 0.0 **** 0.06
29204 H 119.36884234297395 147.62751865802915 128.33793617623903 H 0.0 **** 0.06
29205 H 119.3314199595024 147.66272800631424 126.55889248268608 H 0.0 **** 0.06
29206 C 138.4416987479636 69.90559766328518 19.217671106136642 C 0.0 **** -0.24
29207 H 138.9977226908725 69.04394334064125 18.850419135035708 H 0.0 **** 0.06
29208 H 137.37757498399085 69.7582724350009 19.02964507689039 H 0.0 **** 0.06
29209 H 138.78067976080035 70.80399811200594 18.701700789887596 H 0.0 **** 0.06
29210 H 138.6095101868605 70.01671578984259 20.288902144276022 H 0.0 **** 0.06
29211 C 120.9885657080554 86.23319535233188 46.30032494376995 C 0.0 **** -0.24
29212 H 120.53219614648282 85.56567183384173 45.568217653856934 H 0.0 **** 0.06
29213 H 121.61254314362853 86.96324781833358 45.78602797297536 H 0.0 **** 0.06
29214 H 121.60044115824465 85.651502497491 46.989604063428885 H 0.0 **** 0.06
29215 H 120.20656149804702 86.75056880124826 46.85678698968063 H 0.0 **** 0.06
29216 C 31.298272053567132 29.24068822902842 12.492553397796343 C 0.0 **** -0.24
29217 H 31.328955475012265 30.1588735906559 11.907051914887347 H 0.0 **** 0.06
29218 H 30.836855180598718 29.44157231595426 13.459169088693784 H 0.0 **** 0.06
29219 H 32.31337354715052 28.872006463285658 12.643628219643858 H 0.0 **** 0.06
29220 H 30.714330285596247 28.489798726522167 11.959611707629392 H 0.0 **** 0.06
29221 C 145.9953647322945 99.54482359526133 140.48029179655504 C 0.0 **** -0.24
29222 H 144.9595347229844 99.86679559589314 140.36817083025437 H 0.0 **** 0.06
29223 H 146.44327266714453 100.05511225538814 141.33278274121682 H 0.0 **** 0.06
29224 H 146.55114583377912 99.789943931398 139.5760102023097 H 0.0 **** 0.06
29225 H 146.02435620462953 98.46723202038322 140.64439473528114 H 0.0 **** 0.06
29226 C 128.0375290961521 58.17816714514194 41.83704898315591 C 0.0 **** -0.24
29227 H 127.46037232936129 57.33224258855577 42.21141055895346 H 0.0 **** 0.06
29228 H 128.79166144323975 58.45652241860574 42.573522075289446 H 0.0 **** 0.06
29229 H 127.37115475159192 59.02297970162675 41.66048778012461 H 0.0 **** 0.06
29230 H 128.52598357246126 57.89924940600321 40.903917724683836 H 0.0 **** 0.06
29231 C 50.6326965182414 107.71439364496436 11.157624531437705 C 0.0 **** -0.24
29232 H 50.80938983060463 107.22199234373073 10.201378596897598 H 0.0 **** 0.06
29233 H 49.97017847756986 108.56736702904055 11.00870802838142 H 0.0 **** 0.06
29234 H 51.58129402320213 108.05879266630649 11.569104705173913 H 0.0 **** 0.06
29235 H 50.17014834079278 107.01072995162971 11.849247568951455 H 0.0 **** 0.06
29236 C 28.664883522759993 80.6166268860226 88.22025960624751 C 0.0 **** -0.24
29237 H 27.781066587348135 81.08204598962321 87.78412369353748 H 0.0 **** 0.06
29238 H 29.408629428747588 81.38323553872418 88.43669214629963 H 0.0 **** 0.06
29239 H 29.079139598757223 79.89579891063735 87.51579401424453 H 0.0 **** 0.06
29240 H 28.389251251612507 80.1064934565608 89.14276465483931 H 0.0 **** 0.06
29241 C 144.2652342791394 16.006963038941507 156.79871199640183 C 0.0 **** -0.24
29242 H 144.1162189946935 14.929834671996105 156.87690275536596 H 0.0 **** 0.06
29243 H 144.68393868601228 16.385060157385425 157.73160376844731 H 0.0 **** 0.06
29244 H 143.3086692875292 16.49289385705231 156.60628664756018 H 0.0 **** 0.06
29245 H 144.95224751876896 16.220048698677147 155.9790643893919 H 0.0 **** 0.06
29246 C 133.3646465259901 115.08987806667136 75.08622402463516 C 0.0 **** -0.24
29247 H 133.3885782720683 116.10002853728548 74.67819077229956 H 0.0 **** 0.06
29248 H 132.65591801348634 114.48565367126486 74.52018019063337 H 0.0 **** 0.06
29249 H 133.05717311132864 115.12733319860396 76.13098909363578 H 0.0 **** 0.06
29250 H 134.35821325152935 114.64638269285314 75.01608921356706 H 0.0 **** 0.06
29251 C 68.70342825922309 22.631986217806755 113.36858839952188 C 0.0 **** -0.24
29252 H 69.29482178699153 22.170277380202023 112.57742184085856 H 0.0 **** 0.06
29253 H 69.07539205918673 22.304640018865754 114.33859726700342 H 0.0 **** 0.06
29254 H 67.65921547479977 22.335790153613644 113.25970559730922 H 0.0 **** 0.06
29255 H 68.78242370600665 23.716123293060768 113.29512178250701 H 0.0 **** 0.06
29256 C 76.77341327130125 99.39311955206838 78.325610845059 C 0.0 **** -0.24
29257 H 76.58883499754425 98.33897179952714 78.5336018215436 H 0.0 **** 0.06
29258 H 76.07730620011775 100.00385436287732 78.90131634206604 H 0.0 **** 0.06
29259 H 76.631076828013 99.58363860216315 77.26257950082712 H 0.0 **** 0.06
29260 H 77.79588342234864 99.64524071667981 78.60720376151247 H 0.0 **** 0.06
29261 C 118.31479383840315 48.43319773005763 79.07277495576253 C 0.0 **** -0.24
29262 H 119.37647046920745 48.549577525354835 79.28933745396496 H 0.0 **** 0.06
29263 H 117.94702644499404 47.51886359621531 79.53907969515612 H 0.0 **** 0.06
29264 H 118.16911744717521 48.376339666351896 77.9946124592345 H 0.0 **** 0.06
29265 H 117.76810871811233 49.288782203152664 79.4681626363501 H 0.0 **** 0.06
29266 C 118.88643478777306 37.74696518031496 134.9953109150781 C 0.0 **** -0.24
29267 H 119.19437317238092 38.10436624497987 135.9786411385287 H 0.0 **** 0.06
29268 H 117.81619245421271 37.53734918001993 135.00487001682455 H 0.0 **** 0.06
29269 H 119.43372821165084 36.837313621247006 134.7519906574109 H 0.0 **** 0.06
29270 H 119.10095073418742 38.51152340334494 134.24761543301895 H 0.0 **** 0.06
29271 C 104.6891048431736 15.132775497229055 131.0003281025463 C 0.0 **** -0.24
29272 H 105.5598364790522 15.375357376771525 131.61040542506822 H 0.0 **** 0.06
29273 H 104.81960687135086 15.545231357497265 130.0001245115451 H 0.0 **** 0.06
29274 H 103.79667799727292 15.559529424593592 131.4570777471148 H 0.0 **** 0.06
29275 H 104.5821154884552 14.05029726616894 130.93576037675038 H 0.0 **** 0.06
29276 C 103.23362000255091 148.61519876518787 59.38644296804139 C 0.0 **** -0.24
29277 H 103.02555010710864 148.8631189921772 60.42705159818627 H 0.0 **** 0.06
29278 H 102.88444016392387 147.60377341865694 59.17772766985992 H 0.0 **** 0.06
29279 H 104.3068907379087 148.67360829687306 59.20699076349477 H 0.0 **** 0.06
29280 H 102.71694808965748 149.32076493443236 58.73459757329971 H 0.0 **** 0.06
29281 C 94.86703110438086 134.32159109496567 83.16729483818192 C 0.0 **** -0.24
29282 H 95.33688711871933 133.80894468864847 84.0060282951737 H 0.0 **** 0.06
29283 H 94.66961619020792 133.60445586955944 82.36867267150808 H 0.0 **** 0.06
29284 H 95.53234223588059 135.1021060311012 82.79904170637862 H 0.0 **** 0.06
29285 H 93.92860753993496 134.76896539234286 83.49403371053353 H 0.0 **** 0.06
29286 C 43.892911498922274 64.60569154449125 39.03379175266379 C 0.0 **** -0.24
29287 H 43.08155128803344 63.87856066947916 39.0627770512768 H 0.0 **** 0.06
29288 H 43.55934752925296 65.54102089291308 39.48234154912261 H 0.0 **** 0.06
29289 H 44.18462829030517 64.7821307297869 37.998641341721154 H 0.0 **** 0.06
29290 H 44.746736880508536 64.21861185079209 39.58977770605536 H 0.0 **** 0.06
29291 C 161.05428723804278 141.68455985995945 125.62958062405389 C 0.0 **** -0.24
29292 H 161.82952374701696 141.18166387579146 126.20694516602427 H 0.0 **** 0.06
29293 H 160.1078928441366 141.63084682113322 126.16748248315236 H 0.0 **** 0.06
29294 H 160.95001476160496 141.19764553665672 124.6601872386617 H 0.0 **** 0.06
29295 H 161.33073907378008 142.72906044956758 125.48366703760365 H 0.0 **** 0.06
29296 C 114.61967159563233 87.37213841947079 117.73266157218987 C 0.0 **** -0.24
29297 H 114.9112559817944 87.52302534380061 118.77134029713233 H 0.0 **** 0.06
29298 H 115.4659994927456 87.59431925503117 117.08139075778996 H 0.0 **** 0.06
29299 H 113.78938233431984 88.03457795237415 117.48738933235998 H 0.0 **** 0.06
29300 H 114.31277546926725 86.33616089077404 117.5882344647961 H 0.0 **** 0.06
29301 C 31.060539662749626 18.052145416459595 151.3375392684636 C 0.0 **** -0.24
29302 H 30.51221325106726 17.348718970991655 150.71101693452988 H 0.0 **** 0.06
29303 H 30.667104917991857 18.01579402943728 152.35368519851917 H 0.0 **** 0.06
29304 H 30.945854237322976 19.059776416913728 150.93816116163495 H 0.0 **** 0.06
29305 H 32.11715661409032 17.781912408944706 151.34673923518272 H 0.0 **** 0.06
29306 C 8.610046711599807 15.98446043722214 107.6974207330992 C 0.0 **** -0.24
29307 H 7.9387269666463 16.78196510749825 107.37961899593336 H 0.0 **** 0.06
29308 H 9.643394364487449 16.31904408508268 107.60290996980098 H 0.0 **** 0.06
29309 H 8.453304960837102 15.106316546951916 107.07123451578434 H 0.0 **** 0.06
29310 H 8.404855689719199 15.729164483020384 108.73769834849804 H 0.0 **** 0.06
29311 C 128.26992422807422 32.124680572191096 130.9344504936214 C 0.0 **** -0.24
29312 H 128.01832512204797 32.06812893603336 129.8757774403815 H 0.0 **** 0.06
29313 H 127.35373022182387 32.17218993739533 131.52371722713966 H 0.0 **** 0.06
29314 H 128.8679641008805 33.01709836016573 131.118245624927 H 0.0 **** 0.06
29315 H 128.83951199941242 31.240319163976835 131.2200875477017 H 0.0 **** 0.06
29316 C 132.28815506218083 15.060142505586612 8.451796665940265 C 0.0 **** -0.24
29317 H 133.3673715145043 14.912233737620284 8.483619394921732 H 0.0 **** 0.06
29318 H 132.0678280991838 16.026878437010794 7.998418742535705 H 0.0 **** 0.06
29319 H 131.88856216600033 15.034723943622112 9.465904297817474 H 0.0 **** 0.06
29320 H 131.83080098904722 14.267359004487787 7.860599236448479 H 0.0 **** 0.06
29321 C 96.2494489784569 90.724171034546 24.38741898345173 C 0.0 **** -0.24
29322 H 95.86808032831135 90.54707976328072 23.382223746874736 H 0.0 **** 0.06
29323 H 95.80453989880483 90.00493815719662 25.076035622119797 H 0.0 **** 0.06
29324 H 95.99148145375186 91.73532952590601 24.700232153553472 H 0.0 **** 0.06
29325 H 97.3331613886632 90.60738664903188 24.38980108510936 H 0.0 **** 0.06
29326 C 57.52103838417341 134.77804333514177 130.45992230951245 C 0.0 **** -0.24
29327 H 57.42094270363367 135.78589149187573 130.8634936415607 H 0.0 **** 0.06
29328 H 58.5570607469966 134.60604081698997 130.1665834615485 H 0.0 **** 0.06
29329 H 56.87300027663284 134.66875048150962 129.58988980325563 H 0.0 **** 0.06
29330 H 57.23334743307305 134.05206678272137 131.22051538347907 H 0.0 **** 0.06
29331 C 25.81598880010779 97.88247882032397 148.72100573541405 C 0.0 **** -0.24
29332 H 25.276217542601103 97.10475919044617 149.26117331973268 H 0.0 **** 0.06
29333 H 25.54944483737313 97.8416757867686 147.663980029963 H 0.0 **** 0.06
29334 H 26.888788354636915 97.72391117609507 148.8322365016168 H 0.0 **** 0.06
29335 H 25.54815021851499 98.85885245510622 149.1258253250561 H 0.0 **** 0.06
29336 C 127.36096777462751 123.38580392353609 48.05485404971847 C 0.0 **** -0.24
29337 H 127.24676879137814 123.62611483269384 46.997365447242075 H 0.0 **** 0.06
29338 H 127.0452651643948 124.2386163401629 48.65595362977923 H 0.0 **** 0.06
29339 H 128.40591766824883 123.16008734542748 48.265157572572534 H 0.0 **** 0.06
29340 H 126.7455549672884 122.52020059587701 48.29932245564525 H 0.0 **** 0.06
29341 C 40.707556882368635 37.372439292539894 122.49585189574418 C 0.0 **** -0.24
29342 H 40.46746660043766 37.455607661348594 123.55637609167769 H 0.0 **** 0.06
29343 H 39.904965064890376 37.81653155498206 121.90661229496283 H 0.0 **** 0.06
29344 H 40.816274977043264 36.32160850850593 122.23010417249915 H 0.0 **** 0.06
29345 H 41.64120702654202 37.89763472971683 122.29300950782988 H 0.0 **** 0.06
29346 C 152.14574468496193 141.86860010820754 160.547730420245 C 0.0 **** -0.24
29347 H 151.790275448712 141.0649578554876 159.90328601636384 H 0.0 **** 0.06
29348 H 153.2228743542651 141.98317770971516 160.42502950994196 H 0.0 **** 0.06
29349 H 151.92243912237214 141.62707819141875 161.58690684647956 H 0.0 **** 0.06
29350 H 151.64738981449827 142.79918667620854 160.27569930819448 H 0.0 **** 0.06
29351 C 42.499387809854284 88.47508503673488 114.6542596363812 C 0.0 **** -0.24
29352 H 41.91942417767615 89.26397413772818 115.13227009683203 H 0.0 **** 0.06
29353 H 43.11787088637993 87.97500107209105 115.40000797710479 H 0.0 **** 0.06
29354 H 43.13765760266688 88.9091485621779 113.88400940883923 H 0.0 **** 0.06
29355 H 41.82215022611359 87.75146904304911 114.19895089578301 H 0.0 **** 0.06
29356 C 5.846679241233268 84.09810617861666 55.01891272314134 C 0.0 **** -0.24
29357 H 5.232902648877072 83.42715295829512 54.418232346323364 H 0.0 **** 0.06
29358 H 5.377142648624208 85.08174445792197 55.05816859257233 H 0.0 **** 0.06
29359 H 6.835363678131834 84.18539084992128 54.569528372167014 H 0.0 **** 0.06
29360 H 5.939655588266859 83.69850297954169 56.02826028872049 H 0.0 **** 0.06
29361 C 16.213738159443665 89.16529870879681 21.915272728327807 C 0.0 **** -0.24
29362 H 16.249595652388905 89.5726424783384 22.925377738789557 H 0.0 **** 0.06
29363 H 16.95103405483195 88.36770199367325 21.819376302322574 H 0.0 **** 0.06
29364 H 16.43412433858242 89.95390380697508 21.19680996418493 H 0.0 **** 0.06
29365 H 15.217820754727086 88.76544211392093 21.720567492026788 H 0.0 **** 0.06
29366 C 66.34730624072519 129.28191773347746 88.61762308581753 C 0.0 **** -0.24
29367 H 65.40790945492925 129.74812217338186 88.32160123691243 H 0.0 **** 0.06
29368 H 67.118946309275 129.52251282696716 87.88417127623138 H 0.0 **** 0.06
29369 H 66.21750009672007 128.20118545991775 88.66694801361665 H 0.0 **** 0.06
29370 H 66.6458103092985 129.6575847585351 89.59632041519657 H 0.0 **** 0.06
29371 C 67.4781582502721 34.3363313391942 30.111443149098875 C 0.0 **** -0.24
29372 H 67.1706691820456 35.366557401377094 30.2887834078561 H 0.0 **** 0.06
29373 H 66.59580038242022 33.699803105656045 30.048624013405956 H 0.0 **** 0.06
29374 H 68.11150681576125 34.00062657024833 30.9324898919157 H 0.0 **** 0.06
29375 H 68.03555884640026 34.27937982157539 29.17619346482161 H 0.0 **** 0.06
29376 C 63.277298990879245 98.9282692365986 28.76113873766127 C 0.0 **** -0.24
29377 H 62.90007826661568 98.47118775197492 27.846373251390247 H 0.0 **** 0.06
29378 H 63.31092094092379 98.18026143112573 29.55315435511136 H 0.0 **** 0.06
29379 H 62.61629661659548 99.7430646467709 29.058167667263774 H 0.0 **** 0.06
29380 H 64.2787691530503 99.3184009622164 28.585777566649284 H 0.0 **** 0.06
29381 C 14.75424562971179 88.93124574903095 146.5317029398401 C 0.0 **** -0.24
29382 H 13.864937468307971 89.50764386715667 146.2782132220679 H 0.0 **** 0.06
29383 H 15.565456416870859 89.61274536412458 146.79119521680633 H 0.0 **** 0.06
29384 H 15.049441696509945 88.3245114207657 145.67638279225673 H 0.0 **** 0.06
29385 H 14.537400404460527 88.28370298106438 147.38011104230188 H 0.0 **** 0.06
29386 C 26.33042464601968 114.42867470189776 77.13947009799789 C 0.0 **** -0.24
29387 H 26.344247778074816 113.48345032362568 77.68226992921444 H 0.0 **** 0.06
29388 H 25.389364143672083 114.94474296507624 77.33409945309307 H 0.0 **** 0.06
29389 H 26.42411318337045 114.23563972679148 76.07101289326798 H 0.0 **** 0.06
29390 H 27.162040899476153 115.05036844246396 77.4706319095238 H 0.0 **** 0.06
29391 C 47.3747424938293 69.84893168649103 107.02834485877784 C 0.0 **** -0.24
29392 H 47.078002858992065 70.04376642118677 105.99752630720809 H 0.0 **** 0.06
29393 H 48.46250317693571 69.86658566779977 107.10264100868656 H 0.0 **** 0.06
29394 H 47.004186561814706 68.87134051076609 107.33441120316067 H 0.0 **** 0.06
29395 H 46.953651618851936 70.61695338721148 107.67850641711706 H 0.0 **** 0.06
29396 C 92.9086573566415 5.2874715539255135 86.85386745575195 C 0.0 **** -0.24
29397 H 92.86846376052495 4.741741756081723 87.79662104077087 H 0.0 **** 0.06
29398 H 93.90222419378576 5.71778581190074 86.7253082916402 H 0.0 **** 0.06
29399 H 92.16584471031895 6.084859381679593 86.86381070914169 H 0.0 **** 0.06
29400 H 92.6989564059627 4.605104318110477 86.03078101341852 H 0.0 **** 0.06
29401 C 136.53871621924148 85.99714466041456 34.03794109380385 C 0.0 **** -0.24
29402 H 137.19709597677127 86.60745556007016 33.419693927472565 H 0.0 **** 0.06
29403 H 137.08971671357097 85.13417892079467 34.412078032720615 H 0.0 **** 0.06
29404 H 135.6924238858454 85.65733324298718 33.44162715140516 H 0.0 **** 0.06
29405 H 136.17695082488987 86.59003863741044 34.878104406808916 H 0.0 **** 0.06
29406 C 161.5376702336485 8.756293380719768 57.851939070007234 C 0.0 **** -0.24
29407 H 162.4369810858394 8.59718399822566 58.44551383385513 H 0.0 **** 0.06
29408 H 161.80899548490856 9.19234375579606 56.890560616209996 H 0.0 **** 0.06
29409 H 160.8675494380398 9.433705694634114 58.38198959243181 H 0.0 **** 0.06
29410 H 161.03602153874886 7.802536850291801 57.689092777389476 H 0.0 **** 0.06
29411 C 91.80056242179269 74.97982355156441 149.56359205777423 C 0.0 **** -0.24
29412 H 92.47774779585706 75.82222902223685 149.426585434893 H 0.0 **** 0.06
29413 H 91.74596940966684 74.72625522719164 150.62207377726224 H 0.0 **** 0.06
29414 H 92.17048376208479 74.12152916449821 149.00268760626835 H 0.0 **** 0.06
29415 H 90.8080487195619 75.24928079233084 149.20302141267337 H 0.0 **** 0.06
29416 C 103.28232744298293 143.8902225867002 6.53325256760138 C 0.0 **** -0.24
29417 H 103.31733789883188 144.41419220752223 7.489144822265246 H 0.0 **** 0.06
29418 H 102.47149650637428 144.29598544416453 5.926922953735385 H 0.0 **** 0.06
29419 H 103.11000897972767 142.8280026323364 6.7085066411393655 H 0.0 **** 0.06
29420 H 104.2298435081895 144.02420123887825 6.011332186776656 H 0.0 **** 0.06
29421 C 32.81971788460157 67.23115886836437 147.71329411894502 C 0.0 **** -0.24
29422 H 33.04953407653579 66.41344757407602 147.03054555742463 H 0.0 **** 0.06
29423 H 33.70570248744616 67.85214775297516 147.84849755074143 H 0.0 **** 0.06
29424 H 32.51078654336743 66.8230286294783 148.6765890094432 H 0.0 **** 0.06
29425 H 32.01249881330884 67.83496882122864 147.29949133120817 H 0.0 **** 0.06
29426 C 84.98385002724501 118.22299398088023 74.46458058765322 C 0.0 **** -0.24
29427 H 85.60589268213113 117.75230263994897 73.7031231304708 H 0.0 **** 0.06
29428 H 85.24712332022091 119.27689203525637 74.547976546138 H 0.0 **** 0.06
29429 H 85.14695661008426 117.72988517466655 75.42299428238813 H 0.0 **** 0.06
29430 H 83.93399005544916 118.1312521788995 74.18374722215397 H 0.0 **** 0.06
29431 C 126.43855318301092 15.38026407560048 68.1329501681376 C 0.0 **** -0.24
29432 H 126.20873901161286 15.805520310733755 67.1567471192908 H 0.0 **** 0.06
29433 H 127.5175683606858 15.397963946185541 68.29248660687483 H 0.0 **** 0.06
29434 H 126.08208114675301 14.350860595515911 68.17432684197013 H 0.0 **** 0.06
29435 H 125.9471260662425 15.966359526638513 68.91002377450309 H 0.0 **** 0.06
29436 C 138.35318597063568 31.322898448268944 163.0513274161353 C 0.0 **** -0.24
29437 H 138.02817678893945 32.332448031485 162.79827495215687 H 0.0 **** 0.06
29438 H 138.71426296687923 31.30392170751054 164.0794291284016 H 0.0 **** 0.06
29439 H 139.15685612765654 31.021436489219326 162.37907535065432 H 0.0 **** 0.06
29440 H 137.51481819077352 30.634810279030887 162.94677614909574 H 0.0 **** 0.06
29441 C 79.30366327694357 105.29270071533381 108.72152513747301 C 0.0 **** -0.24
29442 H 79.838204839233 104.56727698850207 109.33468791018052 H 0.0 **** 0.06
29443 H 80.01768987553807 105.86581020216511 108.12940233557686 H 0.0 **** 0.06
29444 H 78.74052865727813 105.96818881242447 109.36627401651205 H 0.0 **** 0.06
29445 H 78.61604782863117 104.76994222537868 108.05599494275168 H 0.0 **** 0.06
29446 C 15.47885663631854 80.04858522186552 31.54888878769995 C 0.0 **** -0.24
29447 H 14.651897192352152 80.46523832421718 30.97516840160904 H 0.0 **** 0.06
29448 H 15.969249608494295 79.26924784056976 30.964263368101655 H 0.0 **** 0.06
29449 H 15.09868220360309 79.62200976942694 32.47639598430513 H 0.0 **** 0.06
29450 H 16.19639560330188 80.83612769846215 31.778173590694763 H 0.0 **** 0.06
29451 C 36.98433478554101 131.2209456177891 5.863045245590563 C 0.0 **** -0.24
29452 H 36.73862124144122 131.53562728031213 6.876100569030584 H 0.0 **** 0.06
29453 H 36.72551299116434 130.16973675492935 5.736376147331164 H 0.0 **** 0.06
29454 H 38.05120721721943 131.35663928941935 5.688943945011289 H 0.0 **** 0.06
29455 H 36.42027543758323 131.8220322279818 5.149036961074103 H 0.0 **** 0.06
29456 C 151.35169482025805 44.654172578973004 111.12741250500233 C 0.0 **** -0.24
29457 H 151.61828746100127 45.67244576577201 111.40889768969359 H 0.0 **** 0.06
29458 H 150.57409105487676 44.68033486505013 110.36337991092708 H 0.0 **** 0.06
29459 H 150.98231212227364 44.120186308231666 112.00309506742539 H 0.0 **** 0.06
29460 H 152.22987888511085 44.1435828633488 110.73396529834736 H 0.0 **** 0.06
29461 C 136.18796956928864 156.7970251900776 93.0281821880063 C 0.0 **** -0.24
29462 H 135.57676505381468 156.01823225083646 93.48493318398764 H 0.0 **** 0.06
29463 H 136.30310479217482 157.62495086723416 93.72832276957557 H 0.0 **** 0.06
29464 H 135.7039512392452 157.15247362665636 92.11912141554566 H 0.0 **** 0.06
29465 H 137.16904888708234 156.39051895299687 92.78149630903728 H 0.0 **** 0.06
29466 C 58.036628989978766 121.77059473599257 135.81128955546205 C 0.0 **** -0.24
29467 H 57.39095553848118 120.8919257588802 135.81199969803168 H 0.0 **** 0.06
29468 H 59.07167427787556 121.4601907143248 135.95202843555688 H 0.0 **** 0.06
29469 H 57.742858433872385 122.43753620056373 136.6209603256842 H 0.0 **** 0.06
29470 H 57.93916252504728 122.29029495033484 134.85802262669517 H 0.0 **** 0.06
29471 C 1.2455792760468967 62.095038287347535 34.58988325733628 C 0.0 **** -0.24
29472 H 1.6789356564799505 61.76386401782722 35.53366644728578 H 0.0 **** 0.06
29473 H 1.8813837003044682 61.772189010464075 33.76555387458353 H 0.0 **** 0.06
29474 H 1.170846962071323 63.18233954550267 34.58615461954966 H 0.0 **** 0.06
29475 H 0.25209688498716787 61.661866201599196 34.474464304793116 H 0.0 **** 0.06
29476 C 155.66038334666686 142.99287943206926 127.73304271585931 C 0.0 **** -0.24
29477 H 156.66103156834927 142.61234020285988 127.52543751187042 H 0.0 **** 0.06
29478 H 155.50763649324273 143.04355307154293 128.81078916881535 H 0.0 **** 0.06
29479 H 154.91959201738698 142.32529662690183 127.2920367233331 H 0.0 **** 0.06
29480 H 155.55410913258254 143.98826236841018 127.30216518529656 H 0.0 **** 0.06
29481 C 146.60075833065736 125.55590938574699 60.81233612293677 C 0.0 **** -0.24
29482 H 145.99391827197874 125.36627261883734 59.925893821989646 H 0.0 **** 0.06
29483 H 145.97277482088316 125.97298529138538 61.59942013858223 H 0.0 **** 0.06
29484 H 147.39268166519173 126.26216307557615 60.565241039515 H 0.0 **** 0.06
29485 H 147.04189146555314 124.62038516919074 61.15604653676361 H 0.0 **** 0.06
29486 C 128.07165899622254 22.324971627254513 88.74733231337018 C 0.0 **** -0.24
29487 H 129.0509472231149 21.860383572421114 88.6326398512988 H 0.0 **** 0.06
29488 H 128.16949696853337 23.406917356435287 88.65798452106212 H 0.0 **** 0.06
29489 H 127.66522722470262 22.076990849788018 89.72849521678177 H 0.0 **** 0.06
29490 H 127.40141310803747 21.95468286048731 87.97161230333954 H 0.0 **** 0.06
29491 C 119.5156449082074 76.5761578146913 65.18253181637999 C 0.0 **** -0.24
29492 H 119.28426625900101 77.50957741910482 64.67055077824966 H 0.0 **** 0.06
29493 H 118.99811210347315 76.54917078125453 66.14153565194363 H 0.0 **** 0.06
29494 H 120.59177615916411 76.51042729122572 65.34784646596142 H 0.0 **** 0.06
29495 H 119.19136690056618 75.7358298426442 64.56974026096123 H 0.0 **** 0.06
29496 C 20.63693901701606 162.4283894367075 7.798009631643822 C 0.0 **** -0.24
29497 H 20.056103213389292 161.70860337157652 8.374829055737223 H 0.0 **** 0.06
29498 H 21.66425636372719 162.074250654083 7.705496467871853 H 0.0 **** 0.06
29499 H 20.629003909856237 163.39197648543055 8.307121484898062 H 0.0 **** 0.06
29500 H 20.199015351008825 162.53677899460615 6.805939366425434 H 0.0 **** 0.06
29501 C 160.6749199086154 48.43992489016895 61.58975057198319 C 0.0 **** -0.24
29502 H 161.61287057103377 48.30046633298832 61.05385723400741 H 0.0 **** 0.06
29503 H 159.94197426195313 47.7161866409792 61.233858076363276 H 0.0 **** 0.06
29504 H 160.30368282315453 49.45043241232969 61.41403636731428 H 0.0 **** 0.06
29505 H 160.84077625680925 48.29481550654462 62.65713606357281 H 0.0 **** 0.06
29506 C 72.65885833530751 140.00046343670667 115.72831890821118 C 0.0 **** -0.24
29507 H 71.73126454603607 140.19161908648314 116.26775670017264 H 0.0 **** 0.06
29508 H 73.46537777583279 139.8324929214143 116.4424457673449 H 0.0 **** 0.06
29509 H 72.89956918799948 140.85933974801787 115.10275069588377 H 0.0 **** 0.06
29510 H 72.53883451313973 139.1168262575015 115.101861040116 H 0.0 **** 0.06
29511 C 11.634874458978118 159.6509376564223 143.44813703056298 C 0.0 **** -0.24
29512 H 11.207196114191731 160.64914844018523 143.5437368824214 H 0.0 **** 0.06
29513 H 10.831225398855736 158.9218603055375 143.34045561331027 H 0.0 **** 0.06
29514 H 12.220136215957893 159.41994938979894 144.33895238334298 H 0.0 **** 0.06
29515 H 12.280051534014717 159.61463962836956 142.5707443993045 H 0.0 **** 0.06
29516 C 94.84472560447423 141.36532459028595 53.61523613646625 C 0.0 **** -0.24
29517 H 94.16816026542065 141.90134637488174 52.94877842719262 H 0.0 **** 0.06
29518 H 94.70953853076668 140.29174634938096 53.48346711550619 H 0.0 **** 0.06
29519 H 94.62593863789715 141.6359328117735 54.64802861281612 H 0.0 **** 0.06
29520 H 95.87476618330936 141.63404074841566 53.37904995018897 H 0.0 **** 0.06
29521 C 84.23122262443016 9.757493556369958 153.0371966610274 C 0.0 **** -0.24
29522 H 84.45820391026922 9.541147223416523 154.08099482548127 H 0.0 **** 0.06
29523 H 83.51908873716587 10.581324545712334 152.98431283162964 H 0.0 **** 0.06
29524 H 83.80071336690435 8.873338896382513 152.5680590012571 H 0.0 **** 0.06
29525 H 85.14831015133075 10.034995013040486 152.51723005142205 H 0.0 **** 0.06
29526 C 119.12850399105662 27.73475138075426 48.179932521640666 C 0.0 **** -0.24
29527 H 119.45271136267195 27.686594895331666 47.140624880204186 H 0.0 **** 0.06
29528 H 119.29840304844294 28.7395286646165 48.56770023214396 H 0.0 **** 0.06
29529 H 119.69525540191367 27.015501697298447 48.770608885343364 H 0.0 **** 0.06
29530 H 118.06603660974955 27.497388569218998 48.2392438458879 H 0.0 **** 0.06
29531 C 93.15238809430146 35.070812712123484 133.37600287143636 C 0.0 **** -0.24
29532 H 93.23273415774443 35.98804599026268 133.95984060203276 H 0.0 **** 0.06
29533 H 92.4125423075942 34.412653183451084 133.8335333690726 H 0.0 **** 0.06
29534 H 94.11934426354564 34.57038541741514 133.35140443556202 H 0.0 **** 0.06
29535 H 92.84279862718066 35.31523988829608 132.3592916984829 H 0.0 **** 0.06
29536 C 110.04478107917598 89.8024086747679 43.98420175411678 C 0.0 **** -0.24
29537 H 109.1798820528175 90.41211512079647 43.72230561397032 H 0.0 **** 0.06
29538 H 109.7740766911229 88.74752098811935 43.930276016742425 H 0.0 **** 0.06
29539 H 110.36584350289621 90.04455025655506 44.99736918053941 H 0.0 **** 0.06
29540 H 110.85744752138316 90.00423015681595 43.286808621582054 H 0.0 **** 0.06
29541 C 99.17984437105926 77.67990838964363 6.659968708537974 C 0.0 **** -0.24
29542 H 100.03194404223385 78.31606393167787 6.419325507979494 H 0.0 **** 0.06
29543 H 98.25745500613314 78.24946114820305 6.546653358720135 H 0.0 **** 0.06
29544 H 99.26746393840807 77.32945233879323 7.688562037205827 H 0.0 **** 0.06
29545 H 99.16391330634528 76.82415462932492 5.984444036213176 H 0.0 **** 0.06
29546 C 43.51351639907365 65.36986758405743 85.14550217504124 C 0.0 **** -0.24
29547 H 43.52240811609303 64.50746426319216 85.81300074716381 H 0.0 **** 0.06
29548 H 42.66234724784903 65.29662435449899 84.46888829114181 H 0.0 **** 0.06
29549 H 44.43736658875916 65.38996463550103 84.56790129722391 H 0.0 **** 0.06
29550 H 43.43273027907175 66.28406835411107 85.73478008408296 H 0.0 **** 0.06
29551 C 26.256165368448137 5.748820766564812 11.2114057171419 C 0.0 **** -0.24
29552 H 26.757526296007256 5.458789124340349 12.134420723891218 H 0.0 **** 0.06
29553 H 26.562662889270086 5.080518450634386 10.405802722917215 H 0.0 **** 0.06
29554 H 26.52745477376638 6.77287579033635 10.957269561455036 H 0.0 **** 0.06
29555 H 25.17715601830676 5.680872643598683 11.34798431571695 H 0.0 **** 0.06
29556 C 41.321566558091774 155.11688305904238 115.71530593708576 C 0.0 **** -0.24
29557 H 40.93741438782865 155.10523284139845 114.6954151429857 H 0.0 **** 0.06
29558 H 41.778079984479234 154.15316440755657 115.94182904703393 H 0.0 **** 0.06
29559 H 40.50242200376954 155.30392991435113 116.40966357504615 H 0.0 **** 0.06
29560 H 42.06861376345691 155.9050189044167 115.81293911920375 H 0.0 **** 0.06
29561 C 132.0643110647086 159.20409014726167 34.66592900517503 C 0.0 **** -0.24
29562 H 131.0214606400489 159.48123994585467 34.822031072381435 H 0.0 **** 0.06
29563 H 132.65655247107009 160.10324520975576 34.49159830815296 H 0.0 **** 0.06
29564 H 132.1390611706049 158.5465772739093 33.799392150841754 H 0.0 **** 0.06
29565 H 132.4385727621048 158.68709289616004 35.54920181853484 H 0.0 **** 0.06
29566 C 41.92447195749287 10.04425503127112 82.8848464329386 C 0.0 **** -0.24
29567 H 40.908839294807706 9.726708032528705 82.647275233889 H 0.0 **** 0.06
29568 H 42.00840703542963 10.222478132768373 83.95763873933765 H 0.0 **** 0.06
29569 H 42.15348587619593 10.962781678328497 82.3448211840443 H 0.0 **** 0.06
29570 H 42.626057662626295 9.264074561135288 82.5905663448394 H 0.0 **** 0.06
29571 C 160.7656928997181 106.84609855532369 72.2801606598177 C 0.0 **** -0.24
29572 H 160.11833279113148 107.56632320090586 72.77989877978948 H 0.0 **** 0.06
29573 H 160.63545778929318 106.92909107372532 71.20024261975406 H 0.0 **** 0.06
29574 H 160.5038949984442 105.83736829281128 72.60079440069443 H 0.0 **** 0.06
29575 H 161.8045962600138 107.05146727114271 72.53838799516555 H 0.0 **** 0.06
29576 C 42.22395094596183 52.53319221740779 46.318804361424725 C 0.0 **** -0.24
29577 H 43.07658268598189 52.713137059918836 46.97458852184525 H 0.0 **** 0.06
29578 H 42.57957397044194 52.20402782883251 45.34260206877468 H 0.0 **** 0.06
29579 H 41.65317278855949 53.45564617936394 46.20623048509242 H 0.0 **** 0.06
29580 H 41.58778729701433 51.763232425196065 46.75393026166819 H 0.0 **** 0.06
29581 C 134.5703157941927 47.47863221029537 94.40935054008192 C 0.0 **** -0.24
29582 H 134.61018665294256 46.497876671030326 94.88132160504686 H 0.0 **** 0.06
29583 H 134.9791798455796 48.22653044691492 95.09019658033448 H 0.0 **** 0.06
29584 H 133.53574777338196 47.727740738294315 94.17419145576484 H 0.0 **** 0.06
29585 H 135.15762863528568 47.46419673040562 93.49097582721272 H 0.0 **** 0.06
29586 C 101.06102103715006 70.84929688763322 131.3654261992396 C 0.0 **** -0.24
29587 H 101.71329588222056 71.59498788158191 131.82125002471884 H 0.0 **** 0.06
29588 H 101.37164272263311 69.85310091733527 131.6812800101832 H 0.0 **** 0.06
29589 H 101.1264374880343 70.92405235555049 130.27971298658377 H 0.0 **** 0.06
29590 H 100.03302403847056 71.0270412693603 131.68042135159448 H 0.0 **** 0.06
29591 C 18.91714768976074 156.34808284366989 79.49533759728575 C 0.0 **** -0.24
29592 H 18.1453628205348 156.4108458770475 78.72770826249752 H 0.0 **** 0.06
29593 H 18.562503403880115 156.83158604953908 80.40574461887908 H 0.0 **** 0.06
29594 H 19.81885874744063 156.84965272313866 79.14567541079275 H 0.0 **** 0.06
29595 H 19.139308926104995 155.30145485613468 79.70216622305013 H 0.0 **** 0.06
29596 C 21.27104802727427 137.33030609880063 76.99136707308416 C 0.0 **** -0.24
29597 H 20.23681707718473 137.0892646592429 77.23903065834706 H 0.0 **** 0.06
29598 H 21.289564780504577 138.058296201167 76.17938835262547 H 0.0 **** 0.06
29599 H 21.789746940136048 136.4239579789808 76.67810776222339 H 0.0 **** 0.06
29600 H 21.766328832100747 137.74880636762242 77.86689621132871 H 0.0 **** 0.06
29601 C 81.93401901726207 120.64608264542653 78.55742020697303 C 0.0 **** -0.24
29602 H 81.18466226676244 119.85912862005449 78.46817504293384 H 0.0 **** 0.06
29603 H 81.57972004053455 121.40794137470209 79.25224204506412 H 0.0 **** 0.06
29604 H 82.1053624131404 121.09611614791535 77.57973051536129 H 0.0 **** 0.06
29605 H 82.86505179218331 120.2190710526279 78.92928027149549 H 0.0 **** 0.06
29606 C 16.05315866335078 143.49390903268505 146.93938575335204 C 0.0 **** -0.24
29607 H 15.667736366805272 144.13605554499372 146.1471898323381 H 0.0 **** 0.06
29608 H 16.055893949356033 142.45858589235638 146.59801003749146 H 0.0 **** 0.06
29609 H 15.418261698005345 143.58456157642382 147.8206659650513 H 0.0 **** 0.06
29610 H 17.069655745340263 143.7968000153802 147.1895128707183 H 0.0 **** 0.06
29611 C 7.453647590691276 140.60285981538627 83.40103077375163 C 0.0 **** -0.24
29612 H 6.966664560056643 139.6554056506704 83.63452173052924 H 0.0 **** 0.06
29613 H 8.109421795069181 140.47116831892515 82.54102881744613 H 0.0 **** 0.06
29614 H 8.039737757216983 140.93023358697164 84.26001773483758 H 0.0 **** 0.06
29615 H 6.6963625698169835 141.35333807577712 83.17043873762155 H 0.0 **** 0.06
29616 C 78.97505639756554 73.64248124291956 38.407765387880175 C 0.0 **** -0.24
29617 H 79.84697994724738 73.65237408549491 39.06158669595672 H 0.0 **** 0.06
29618 H 78.07023872907534 73.74874695452523 39.006845904049484 H 0.0 **** 0.06
29619 H 78.94035794675095 72.69903611730471 37.86244329454952 H 0.0 **** 0.06
29620 H 79.04175737929732 74.46899693030437 37.70096723816722 H 0.0 **** 0.06
29621 C 125.53315883770875 63.413754861825 80.26259601945566 C 0.0 **** -0.24
29622 H 126.50805920256425 63.83791720629294 80.02285359192757 H 0.0 **** 0.06
29623 H 125.32791458902932 63.55306421807455 81.32452331986029 H 0.0 **** 0.06
29624 H 125.5323738033212 62.35024014890911 80.02809733455247 H 0.0 **** 0.06
29625 H 124.76458724024462 63.91734959809192 79.67545385135395 H 0.0 **** 0.06
29626 C 80.81687838169378 133.6256138372126 147.6180214677688 C 0.0 **** -0.24
29627 H 80.24448287430488 132.8030131858695 148.04574963146302 H 0.0 **** 0.06
29628 H 81.39656025395476 134.1125191436037 148.40287498001715 H 0.0 **** 0.06
29629 H 80.13516915879644 134.34664001552062 147.16827642383987 H 0.0 **** 0.06
29630 H 81.49270426959225 133.23898366603774 146.8540257933455 H 0.0 **** 0.06
29631 C 135.45758448702225 77.73298375156968 30.783379179115073 C 0.0 **** -0.24
29632 H 134.93602495662662 76.85888314910983 30.394067433867576 H 0.0 **** 0.06
29633 H 135.9468863553351 78.25897173724141 29.96354128058102 H 0.0 **** 0.06
29634 H 136.20485913253663 77.41676508771491 31.510777418867555 H 0.0 **** 0.06
29635 H 134.73997029620338 78.39835921903729 31.265536081728783 H 0.0 **** 0.06
29636 C 97.0173094791893 2.2457667938024883 123.18427287355166 C 0.0 **** -0.24
29637 H 96.33053448938807 2.7105695028301042 122.47729876284046 H 0.0 **** 0.06
29638 H 97.83681572727642 2.9321008978706047 123.39938188645823 H 0.0 **** 0.06
29639 H 97.41601573689525 1.3270429515785267 122.75253022158114 H 0.0 **** 0.06
29640 H 96.48520116725399 2.0128166040473303 124.10675746303863 H 0.0 **** 0.06
29641 C 122.13735509446474 159.64445100302177 144.69808589419225 C 0.0 **** -0.24
29642 H 122.55555505246087 158.92228344509806 145.3984997975125 H 0.0 **** 0.06
29643 H 121.3000147735653 160.1618225617501 145.16722951552686 H 0.0 **** 0.06
29644 H 121.78849771668592 159.1244057462554 143.80580548806938 H 0.0 **** 0.06
29645 H 122.90337432281876 160.3683226786383 144.4211902908277 H 0.0 **** 0.06
29646 C 11.169493779058627 52.72461753355424 83.36832670029176 C 0.0 **** -0.24
29647 H 10.371789288785976 53.231375245160564 82.82609243799044 H 0.0 **** 0.06
29648 H 10.88390579853072 51.68868457811999 83.55083223672125 H 0.0 **** 0.06
29649 H 11.33835663629236 53.228543313957346 84.320010471762 H 0.0 **** 0.06
29650 H 12.084488251978598 52.750593041444915 82.77597945127056 H 0.0 **** 0.06
29651 C 81.27106527692814 78.1493875062425 58.54470055998472 C 0.0 **** -0.24
29652 H 81.33349566820988 78.66695042424675 57.58737933280804 H 0.0 **** 0.06
29653 H 82.21609752282873 78.25404610055443 59.07673106510806 H 0.0 **** 0.06
29654 H 81.06546115489783 77.09278660848072 58.37249036637465 H 0.0 **** 0.06
29655 H 80.4684289075418 78.58406435583325 59.14012623860809 H 0.0 **** 0.06
29656 C 45.30167225476998 156.14104970643837 24.99371953556036 C 0.0 **** -0.24
29657 H 45.97887344152207 155.4012649687406 25.421007449235645 H 0.0 **** 0.06
29658 H 44.65164084684358 156.53367181789758 25.775817298176264 H 0.0 **** 0.06
29659 H 44.696189086495224 155.67410000779026 24.2175630199975 H 0.0 **** 0.06
29660 H 45.88197697341786 156.95617635009057 24.560567292731264 H 0.0 **** 0.06
29661 C 51.859796708614226 44.93103327116657 127.80081064158173 C 0.0 **** -0.24
29662 H 52.93799946830923 44.92763599830769 127.6386096990621 H 0.0 **** 0.06
29663 H 51.63536017088741 44.46575158452583 128.76110438638256 H 0.0 **** 0.06
29664 H 51.371907257981675 44.371433993928136 127.00279598874135 H 0.0 **** 0.06
29665 H 51.495344219969155 45.9574792976818 127.79994852428655 H 0.0 **** 0.06
29666 C 100.82981407093126 98.04140503516047 116.48400721951279 C 0.0 **** -0.24
29667 H 99.96962707125729 97.58406313939122 115.99464683534165 H 0.0 **** 0.06
29668 H 100.48485865105982 98.72668533785045 117.25727720736003 H 0.0 **** 0.06
29669 H 101.41736550864599 98.58981590270506 115.74665402643137 H 0.0 **** 0.06
29670 H 101.44637721204577 97.26361183535599 116.93415550231677 H 0.0 **** 0.06
29671 C 142.25913648101215 59.70328972983158 137.51015407813452 C 0.0 **** -0.24
29672 H 142.68279376113105 60.499675798866534 138.1225025178341 H 0.0 **** 0.06
29673 H 141.17892367508352 59.670086477056785 137.65527031274075 H 0.0 **** 0.06
29674 H 142.69550786610188 58.74820369013477 137.80345007698992 H 0.0 **** 0.06
29675 H 142.47897383582404 59.896456624048525 136.46052608596653 H 0.0 **** 0.06
29676 C 138.47872535871647 56.41194607941884 24.772539802845074 C 0.0 **** -0.24
29677 H 137.64779000950935 56.826772620024656 24.200984664661917 H 0.0 **** 0.06
29678 H 138.6671942663461 55.38828454110228 24.447791585371135 H 0.0 **** 0.06
29679 H 138.22820582141915 56.417177277991215 25.833161054710843 H 0.0 **** 0.06
29680 H 139.3702582487351 57.015785085568325 24.606538647494602 H 0.0 **** 0.06
29681 C 60.202935823498024 7.0520066908153325 160.14385063050173 C 0.0 **** -0.24
29682 H 59.54755801929434 7.919907723170411 160.2237732156891 H 0.0 **** 0.06
29683 H 61.22298088582431 7.343152680621884 160.3934802028211 H 0.0 **** 0.06
29684 H 60.172965678017476 6.667444017011547 159.12394660412215 H 0.0 **** 0.06
29685 H 59.865802633215026 6.277678734268626 160.83399940233184 H 0.0 **** 0.06
29686 C 153.50560225770136 81.0692768763547 134.54404155794882 C 0.0 **** -0.24
29687 H 154.2058257210094 81.85572449525783 134.26154533568223 H 0.0 **** 0.06
29688 H 154.04134759861898 80.27512038378848 135.06309957159692 H 0.0 **** 0.06
29689 H 153.03435673996344 80.66421096892454 133.64768494702977 H 0.0 **** 0.06
29690 H 152.74069392016483 81.48251222925899 135.2005570541266 H 0.0 **** 0.06
29691 C 144.86041101837293 150.80543643340957 145.89121259953652 C 0.0 **** -0.24
29692 H 144.42905249416597 149.99633041882393 145.30160328439666 H 0.0 **** 0.06
29693 H 145.5279618283354 150.38894543409106 146.64559448020893 H 0.0 **** 0.06
29694 H 144.06178746632074 151.36396758276103 146.38007377873228 H 0.0 **** 0.06
29695 H 145.42107549033034 151.47282646273544 145.23624712440633 H 0.0 **** 0.06
29696 C 44.43320001789641 53.10066780601251 159.52107391377416 C 0.0 **** -0.24
29697 H 45.37121972921251 53.61931387989621 159.3238250418673 H 0.0 **** 0.06
29698 H 44.28478246309092 53.01632286264443 160.5980999333238 H 0.0 **** 0.06
29699 H 44.46836632130436 52.10495238725467 159.07855046325983 H 0.0 **** 0.06
29700 H 43.60877316073915 53.66449248384272 159.08354908813683 H 0.0 **** 0.06
29701 C 102.9881333814671 76.78634816058587 47.02087417153025 C 0.0 **** -0.24
29702 H 102.42506449943198 76.65945252563193 47.94599892801676 H 0.0 **** 0.06
29703 H 102.49817774396388 76.2325304966788 46.21936849038009 H 0.0 **** 0.06
29704 H 104.00128550856863 76.40976187395756 47.15766364076613 H 0.0 **** 0.06
29705 H 103.02563629913288 77.84441032944551 46.761808868319406 H 0.0 **** 0.06
29706 C 10.96265246135377 49.25009145813215 130.57368659301562 C 0.0 **** -0.24
29707 H 11.116259428286043 50.16296498280121 131.148868888889 H 0.0 **** 0.06
29708 H 10.896655972195703 49.49623806199838 129.5129009255306 H 0.0 **** 0.06
29709 H 10.037635857023105 48.77013421994366 130.89317710418703 H 0.0 **** 0.06
29710 H 11.799332498681451 48.57110649847641 130.73768595584772 H 0.0 **** 0.06
29711 C 110.02497724248585 84.32929593211716 79.06482279787596 C 0.0 **** -0.24
29712 H 109.71908445907351 84.88674320674876 79.94909591251752 H 0.0 **** 0.06
29713 H 110.10054977775002 83.26950303459 79.31098068080536 H 0.0 **** 0.06
29714 H 110.99383262549804 84.69201206937694 78.72266920273879 H 0.0 **** 0.06
29715 H 109.28649557880519 84.46712532207744 78.27488498059296 H 0.0 **** 0.06
29716 C 10.443748181811571 42.393403291745 152.6462500210663 C 0.0 **** -0.24
29717 H 9.594042375500898 42.01576994947344 152.0754207748131 H 0.0 **** 0.06
29718 H 10.83510255112595 43.28926178263852 152.16328914887555 H 0.0 **** 0.06
29719 H 11.22168496508236 41.63164167838593 152.68608003344548 H 0.0 **** 0.06
29720 H 10.121010397584982 42.637391938819064 153.65824592535625 H 0.0 **** 0.06
29721 C 27.167396546199654 153.0418957444512 148.40416047863368 C 0.0 **** -0.24
29722 H 28.189885641905533 153.2834236878017 148.69461901298263 H 0.0 **** 0.06
29723 H 27.012539568664465 151.9653432489343 148.4850056296985 H 0.0 **** 0.06
29724 H 26.998104193877708 153.35718236316274 147.3747299107572 H 0.0 **** 0.06
29725 H 26.470433382500715 153.55975796825842 149.06305342957762 H 0.0 **** 0.06
29726 C 125.80561567923564 79.97961719952374 77.93176305928367 C 0.0 **** -0.24
29727 H 126.32174624207505 80.67375112774883 77.26927595940325 H 0.0 **** 0.06
29728 H 126.51640464419393 79.56140700630428 78.64483048392589 H 0.0 **** 0.06
29729 H 125.36606586653215 79.17480014764686 77.34233423501792 H 0.0 **** 0.06
29730 H 125.0180154589981 80.50762359516546 78.46953438727304 H 0.0 **** 0.06
29731 C 12.8270882969614 88.64961070079531 14.747675563403817 C 0.0 **** -0.24
29732 H 11.793348776225386 88.98797272450338 14.683219573014071 H 0.0 **** 0.06
29733 H 12.980156583936157 87.81530460382947 14.06292502461163 H 0.0 **** 0.06
29734 H 13.040608528110177 88.32815134141008 15.76703754266235 H 0.0 **** 0.06
29735 H 13.493822652348925 89.4686410421948 14.478996502126947 H 0.0 **** 0.06
29736 C 147.63956054045173 73.70288112059728 7.855352319818195 C 0.0 **** -0.24
29737 H 147.27531487075117 72.6750978528711 7.890331842663272 H 0.0 **** 0.06
29738 H 146.791638711178 74.38782582126055 7.854263753886528 H 0.0 **** 0.06
29739 H 148.2262260499088 73.84872156214158 6.948759258385849 H 0.0 **** 0.06
29740 H 148.26315060340772 73.89611018352568 8.727681265853192 H 0.0 **** 0.06
29741 C 18.68960834603729 143.48176161249876 86.52520371026944 C 0.0 **** -0.24
29742 H 19.13207908089788 143.90319848485527 87.42816466523979 H 0.0 **** 0.06
29743 H 18.457169627215023 142.4298467182583 86.69251230698534 H 0.0 **** 0.06
29744 H 19.395617633464894 143.57133154523595 85.70018859553701 H 0.0 **** 0.06
29745 H 17.77540794534724 144.02324811909546 86.28264683558639 H 0.0 **** 0.06
29746 C 21.905506149469964 122.01202791701667 90.03297143856116 C 0.0 **** -0.24
29747 H 21.178225456096584 121.38624476322661 89.5163244854281 H 0.0 **** 0.06
29748 H 21.836601857498728 121.83772583450656 91.10632916646 H 0.0 **** 0.06
29749 H 21.699630712992906 123.06069197599814 89.82048184887091 H 0.0 **** 0.06
29750 H 22.908675195392817 121.76222297633987 89.68724435237226 H 0.0 **** 0.06
29751 C 69.17084310654877 104.73543384908007 54.99149552069635 C 0.0 **** -0.24
29752 H 69.17521333837686 105.82089889997363 54.88680352567866 H 0.0 **** 0.06
29753 H 69.85848380989557 104.4448050511865 55.786835117657276 H 0.0 **** 0.06
29754 H 69.48651173063797 104.27943337524275 54.053562303788055 H 0.0 **** 0.06
29755 H 68.16429942368126 104.39851567131504 55.23979738896222 H 0.0 **** 0.06
29756 C 86.44001356296945 76.83185423421591 140.14356966799158 C 0.0 **** -0.24
29757 H 86.45599761505804 77.13953935602251 139.09766371895998 H 0.0 **** 0.06
29758 H 87.19873983487281 77.38616186169425 140.6960779095017 H 0.0 **** 0.06
29759 H 86.64808546561875 75.76443058147596 140.21119850367594 H 0.0 **** 0.06
29760 H 85.45680366146013 77.03896091069458 140.56760387557856 H 0.0 **** 0.06
29761 C 47.66758959539544 80.68218379914101 115.27345187120164 C 0.0 **** -0.24
29762 H 48.699101358302755 80.34893838561669 115.3819036802625 H 0.0 **** 0.06
29763 H 47.4737868567849 81.49573552275416 115.971875038646 H 0.0 **** 0.06
29764 H 46.99304663091431 79.85272021356198 115.48414545031963 H 0.0 **** 0.06
29765 H 47.50527056548282 81.03192765257842 114.25389872051778 H 0.0 **** 0.06
29766 C 102.33822885216574 25.521229455220805 132.53909238810397 C 0.0 **** -0.24
29767 H 102.63225203395598 25.88326794523133 131.55386329844208 H 0.0 **** 0.06
29768 H 101.25843976788101 25.381681286588325 132.56687080210426 H 0.0 **** 0.06
29769 H 102.63117465279913 26.250709237154915 133.29548046393862 H 0.0 **** 0.06
29770 H 102.83462442388651 24.57151032558221 132.74054186781598 H 0.0 **** 0.06
29771 C 36.922124975571734 6.73873604662603 161.25055786873114 C 0.0 **** -0.24
29772 H 37.3986677311934 6.1782824973375625 162.05461984733296 H 0.0 **** 0.06
29773 H 37.6871961037908 7.1404714314976445 160.58572727075318 H 0.0 **** 0.06
29774 H 36.34072458311121 7.557432996925257 161.67339319400747 H 0.0 **** 0.06
29775 H 36.26242052768811 6.077723298028474 160.68767149449408 H 0.0 **** 0.06
29776 C 97.8186589230572 50.76342283813359 58.71608010079106 C 0.0 **** -0.24
29777 H 98.20763290715382 50.661573009889196 59.72929267141565 H 0.0 **** 0.06
29778 H 98.46052687617154 51.43519954857567 58.14604813556372 H 0.0 **** 0.06
29779 H 96.8084021168655 51.169944533567644 58.754643430138216 H 0.0 **** 0.06
29780 H 97.79795813358965 49.78480750116741 58.23615055810734 H 0.0 **** 0.06
29781 C 159.27923758698267 118.4545101736079 32.11337239732244 C 0.0 **** -0.24
29782 H 159.49029964315105 119.41977111550818 32.57400781630392 H 0.0 **** 0.06
29783 H 160.04429752032172 117.73656002090729 32.40891889617988 H 0.0 **** 0.06
29784 H 159.2792961689437 118.56121115900032 31.02878227166037 H 0.0 **** 0.06
29785 H 158.30207573533295 118.1017666709464 32.4436322953456 H 0.0 **** 0.06
29786 C 30.55395348190632 16.300538224924168 3.1211863860776816 C 0.0 **** -0.24
29787 H 30.929991838282376 17.32179872652668 3.178631886357323 H 0.0 **** 0.06
29788 H 30.694771656694343 15.806905470765855 4.082944054624022 H 0.0 **** 0.06
29789 H 31.098173373366336 15.755168387826387 2.3492399185271324 H 0.0 **** 0.06
29790 H 29.49231763864492 16.317461607671817 2.8740592908696954 H 0.0 **** 0.06
29791 C 121.87906508725573 124.14432151296651 60.647272280230766 C 0.0 **** -0.24
29792 H 121.26602438778039 124.91737828675008 61.11152889826485 H 0.0 **** 0.06
29793 H 121.2548617963424 123.28749539770806 60.39651926999517 H 0.0 **** 0.06
29794 H 122.66040707195884 123.83412803615647 61.34128422091385 H 0.0 **** 0.06
29795 H 122.33596381246304 124.53922733108263 59.74009931294057 H 0.0 **** 0.06
29796 C 122.90787206325027 1.7803307842320066 75.10763078504877 C 0.0 **** -0.24
29797 H 123.7522902813748 2.2835949912221736 74.63715671189402 H 0.0 **** 0.06
29798 H 123.09335863575834 0.7066554935089187 75.13483284445013 H 0.0 **** 0.06
29799 H 122.00214602287147 1.9791708926858291 74.53465014888147 H 0.0 **** 0.06
29800 H 122.78419130043602 2.1537940360558423 76.12429746239462 H 0.0 **** 0.06
29801 C 52.454573793443416 146.0820653914976 2.6666239066059916 C 0.0 **** -0.24
29802 H 53.02218080265193 146.33000479445548 1.7700291406642918 H 0.0 **** 0.06
29803 H 51.48144235845504 146.5711509616498 2.627325559341557 H 0.0 **** 0.06
29804 H 52.998277668609006 146.42489452831006 3.546925635688467 H 0.0 **** 0.06
29805 H 52.31639434405801 145.00221128157503 2.722215290729423 H 0.0 **** 0.06
29806 C 14.386452870756898 91.85810865248914 16.773495988202455 C 0.0 **** -0.24
29807 H 14.45266764924446 91.47335249658386 15.755770994879128 H 0.0 **** 0.06
29808 H 13.539364541833066 92.54052110561554 16.848732196113048 H 0.0 **** 0.06
29809 H 15.304626484453564 92.38955573272118 17.021741918343537 H 0.0 **** 0.06
29810 H 14.247579772725146 91.02881977268855 17.466517667316538 H 0.0 **** 0.06
29811 C 135.13421362546094 28.630308969240076 2.755252000850419 C 0.0 **** -0.24
29812 H 135.35394605121456 29.05480101680135 1.7760329264285701 H 0.0 **** 0.06
29813 H 135.7748277520099 29.09612130250244 3.50415003822593 H 0.0 **** 0.06
29814 H 135.31975749923157 27.55618530905008 2.735561822440445 H 0.0 **** 0.06
29815 H 134.08950489267212 28.814134343816193 3.0044862837548294 H 0.0 **** 0.06
29816 C 41.46836076615057 49.71598002239007 17.504518876991746 C 0.0 **** -0.24
29817 H 42.36579290982286 49.1964530749228 17.16842341612665 H 0.0 **** 0.06
29818 H 41.517039907761045 50.76013401617742 17.19445815013765 H 0.0 **** 0.06
29819 H 41.40410959533244 49.66244426769258 18.591737159657995 H 0.0 **** 0.06
29820 H 40.58946881567249 49.24616897415457 17.06419928551307 H 0.0 **** 0.06
29821 C 29.76930314058191 147.67652953722288 18.212515107357213 C 0.0 **** -0.24
29822 H 29.608158906034987 148.0993840369581 19.204868122651177 H 0.0 **** 0.06
29823 H 28.87765197945032 147.82857737984446 17.603741310003194 H 0.0 **** 0.06
29824 H 29.971010081116816 146.60936411174188 18.30149319942506 H 0.0 **** 0.06
29825 H 30.61920053486324 148.16930582237524 17.742035820155188 H 0.0 **** 0.06
29826 C 28.657332372416015 5.64420654840103 17.805971952201162 C 0.0 **** -0.24
29827 H 27.970068137449104 5.856269281375013 18.624376555037514 H 0.0 **** 0.06
29828 H 28.620462135424553 4.581381438951439 17.566963107926824 H 0.0 **** 0.06
29829 H 29.670485358160292 5.915754735085919 18.10177501855378 H 0.0 **** 0.06
29830 H 28.367264927481408 6.22361583567821 16.928807973013875 H 0.0 **** 0.06
29831 C 57.40573081260621 121.33077348684662 8.44140747837804 C 0.0 **** -0.24
29832 H 56.769129208232755 120.52571797375901 8.808980444799346 H 0.0 **** 0.06
29833 H 57.519670001224014 121.23830115552835 7.360021020868487 H 0.0 **** 0.06
29834 H 58.38393819710686 121.26538099360505 8.916153667193441 H 0.0 **** 0.06
29835 H 56.949699252356965 122.29188919127705 8.678128123607337 H 0.0 **** 0.06
29836 C 107.63131200324136 15.630414837176176 36.60454937365505 C 0.0 **** -0.24
29837 H 108.35233751805077 15.0896170872619 35.99134560300807 H 0.0 **** 0.06
29838 H 107.26697657461875 14.977345498203846 37.39778200068622 H 0.0 **** 0.06
29839 H 106.79472152103324 15.950565832784008 35.98384529966532 H 0.0 **** 0.06
29840 H 108.1127618812892 16.50394368013366 37.04447350317885 H 0.0 **** 0.06
29841 C 22.952754753112885 61.5872431368344 73.58249025914222 C 0.0 **** -0.24
29842 H 23.776124287092046 61.60300578761573 74.29631096065316 H 0.0 **** 0.06
29843 H 23.190922796806035 62.23398169889887 72.73817096870869 H 0.0 **** 0.06
29844 H 22.043799975589394 61.942576220416484 74.06803476936483 H 0.0 **** 0.06
29845 H 22.79864842796772 60.56779412668223 73.22717652806955 H 0.0 **** 0.06
29846 C 9.182492026935321 29.872896090119127 35.00289547211034 C 0.0 **** -0.24
29847 H 8.987885926979281 28.924734892189804 35.50338887122547 H 0.0 **** 0.06
29848 H 8.247152524835805 30.42265222714377 34.891890512267594 H 0.0 **** 0.06
29849 H 9.610471689425829 29.68214628628425 34.01885646364585 H 0.0 **** 0.06
29850 H 9.882252128877312 30.4599613392395 35.5961163349717 H 0.0 **** 0.06
29851 C 46.47224746122518 52.51873571348098 110.09932497774136 C 0.0 **** -0.24
29852 H 47.51384718901855 52.644794544497756 110.39280751453916 H 0.0 **** 0.06
29853 H 46.28894336452167 51.472537667307506 109.85280289674759 H 0.0 **** 0.06
29854 H 46.26211761377938 53.13929054931069 109.22841052283587 H 0.0 **** 0.06
29855 H 45.82425455583481 52.81694476535915 110.92355941913263 H 0.0 **** 0.06
29856 C 89.88222786774978 25.72772195263866 115.40333610804794 C 0.0 **** -0.24
29857 H 90.13234026714306 25.308221140347882 116.37733183954958 H 0.0 **** 0.06
29858 H 90.78935641893055 26.09372964159178 114.92157678605395 H 0.0 **** 0.06
29859 H 89.18122970544714 26.552237767295935 115.53277760079459 H 0.0 **** 0.06
29860 H 89.42637526799751 24.95756746751573 114.78196480178156 H 0.0 **** 0.06
29861 C 133.48673621964755 94.75494467059004 10.373310194894259 C 0.0 **** -0.24
29862 H 134.5629361589394 94.85830629212178 10.229522274975892 H 0.0 **** 0.06
29863 H 133.0061489753975 95.72151624213181 10.222319628084136 H 0.0 **** 0.06
29864 H 133.28789950329113 94.40330247537095 11.38605577252062 H 0.0 **** 0.06
29865 H 133.0922735830212 94.0367562223063 9.654544284126814 H 0.0 **** 0.06
29866 C 26.678433551176887 54.32845812824138 122.54252650737317 C 0.0 **** -0.24
29867 H 25.95312599965672 53.54569636975239 122.31788707250067 H 0.0 **** 0.06
29868 H 27.642721452539426 53.87443062086514 122.77071441354329 H 0.0 **** 0.06
29869 H 26.33608253109673 54.906063098654855 123.40060232199912 H 0.0 **** 0.06
29870 H 26.781312818081965 54.985221213368476 121.67892824953253 H 0.0 **** 0.06
29871 C 73.89367034148276 138.81296805895965 106.75214974065796 C 0.0 **** -0.24
29872 H 74.38091017416933 138.70522525740597 107.72050125133234 H 0.0 **** 0.06
29873 H 74.51102951440758 138.34800335531162 105.9820053369017 H 0.0 **** 0.06
29874 H 73.76553989137923 139.87137238764575 106.52555822047043 H 0.0 **** 0.06
29875 H 72.91870804273027 138.32653961632565 106.78009141862685 H 0.0 **** 0.06
29876 C 159.02265355265303 87.34251757628468 13.815869896122557 C 0.0 **** -0.24
29877 H 158.86803926022782 86.9725338392519 14.828860160551883 H 0.0 **** 0.06
29878 H 159.964283264183 86.95449940726395 13.427720136078015 H 0.0 **** 0.06
29879 H 159.0551790895547 88.43206115094246 13.827348140496099 H 0.0 **** 0.06
29880 H 158.2023928768647 87.0105468021821 13.178411879061173 H 0.0 **** 0.06
29881 C 67.97135298553943 16.517578636781415 162.30334643216975 C 0.0 **** -0.24
29882 H 68.38128686840133 15.833015369447402 163.04559516785596 H 0.0 **** 0.06
29883 H 67.18612627351452 16.014661434147662 161.7391628227805 H 0.0 **** 0.06
29884 H 68.76341393068473 16.83239890576059 161.62256631450796 H 0.0 **** 0.06
29885 H 67.55605411198081 17.391662925826267 162.80515950845637 H 0.0 **** 0.06
29886 C 151.04045121277136 1.9991148330292958 94.67975886603277 C 0.0 **** -0.24
29887 H 152.02008109810546 1.8849671119159552 95.14502166679787 H 0.0 **** 0.06
29888 H 150.2654664779413 1.9125919427659142 95.44140990758447 H 0.0 **** 0.06
29889 H 150.90180825668756 1.221922489821793 93.9291144718709 H 0.0 **** 0.06
29890 H 150.9761828576381 2.9788777295250384 94.20503353370253 H 0.0 **** 0.06
29891 C 142.06264188020464 55.53681719551133 131.4770307630757 C 0.0 **** -0.24
29892 H 141.73276969446897 56.57005621184726 131.59077771630737 H 0.0 **** 0.06
29893 H 143.01698008286024 55.402360854676544 131.9860749057145 H 0.0 **** 0.06
29894 H 142.17978765148598 55.30799879626622 130.41693457963436 H 0.0 **** 0.06
29895 H 141.32017558933248 54.86834943175154 131.91291092032023 H 0.0 **** 0.06
29896 C 10.844284408081748 1.9875008286922693 137.78745676707743 C 0.0 **** -0.24
29897 H 10.265231479606562 2.906493673688729 137.87776019912582 H 0.0 **** 0.06
29898 H 11.76311411116155 2.1899519959022626 137.23539480042484 H 0.0 **** 0.06
29899 H 10.258053219530574 1.2389920416735976 137.25585315729737 H 0.0 **** 0.06
29900 H 11.092448745121295 1.6155004469500014 138.78191544310675 H 0.0 **** 0.06
29901 C 117.21043422769816 122.46769743955602 84.19168668203223 C 0.0 **** -0.24
29902 H 116.3311124761263 122.7634728650408 84.76271730333868 H 0.0 **** 0.06
29903 H 117.86343745924475 121.86095859943592 84.81907939584005 H 0.0 **** 0.06
29904 H 117.74628744816908 123.35767309759169 83.86147233620909 H 0.0 **** 0.06
29905 H 116.9000163847603 121.88663423250722 83.32247082207847 H 0.0 **** 0.06
29906 C 56.275929809903744 124.64766369534706 48.57095437163804 C 0.0 **** -0.24
29907 H 56.05773034614441 124.48249189840618 49.62618142602548 H 0.0 **** 0.06
29908 H 56.12296737571103 123.72041852523665 48.01934606446389 H 0.0 **** 0.06
29909 H 57.31187788492946 124.96926156131167 48.46083047032607 H 0.0 **** 0.06
29910 H 55.61300609628134 125.41935927937055 48.17878737687113 H 0.0 **** 0.06
29911 C 3.795289333773745 95.92599706677419 83.92871483941762 C 0.0 **** -0.24
29912 H 3.5701898432030603 94.99410329661816 84.44631897718185 H 0.0 **** 0.06
29913 H 2.889106049246813 96.30982229471567 83.46143883215865 H 0.0 **** 0.06
29914 H 4.549881143526399 95.74365370197694 83.16449307098705 H 0.0 **** 0.06
29915 H 4.172907017610498 96.6567833872893 84.64484481104913 H 0.0 **** 0.06
29916 C 121.44800729624237 54.1023881045672 29.966215357956813 C 0.0 **** -0.24
29917 H 121.66200958223857 55.15923537965351 29.810849090042083 H 0.0 **** 0.06
29918 H 121.16836130894163 53.93787634817211 31.007524104006926 H 0.0 **** 0.06
29919 H 122.3340974355722 53.51372697618743 29.730123900801217 H 0.0 **** 0.06
29920 H 120.62607444410733 53.79953992537477 29.316693029571276 H 0.0 **** 0.06
29921 C 55.31292335105701 162.32303219795975 130.7548197375371 C 0.0 **** -0.24
29922 H 54.78491203350171 162.90308304951463 129.99757741752705 H 0.0 **** 0.06
29923 H 55.560029678748094 162.96774837908646 131.5993488491011 H 0.0 **** 0.06
29924 H 56.22942269763894 161.9164420269752 130.3273501667999 H 0.0 **** 0.06
29925 H 54.67663702910852 161.50604412075015 131.09533120490372 H 0.0 **** 0.06
29926 C 145.96168090254764 116.36693387188251 123.6097269541234 C 0.0 **** -0.24
29927 H 145.11306165948167 116.9851403019016 123.90375257663192 H 0.0 **** 0.06
29928 H 145.75347705017856 115.32553376437156 123.8529013657772 H 0.0 **** 0.06
29929 H 146.8522853554757 116.6946275836626 124.14533256965692 H 0.0 **** 0.06
29930 H 146.1268599652999 116.4644135181405 122.53693832703419 H 0.0 **** 0.06
29931 C 162.56719268382022 56.80305710668074 94.21095374578266 C 0.0 **** -0.24
29932 H 162.50186934791412 55.726386653971815 94.37002754859549 H 0.0 **** 0.06
29933 H 163.36058708001093 57.01669315102754 93.49522837478054 H 0.0 **** 0.06
29934 H 162.78823021022373 57.29733712828511 95.15716013943006 H 0.0 **** 0.06
29935 H 161.6175856306275 57.17008110346001 93.82226920900473 H 0.0 **** 0.06
29936 C 45.70719835087118 99.07898067117955 81.16246677408122 C 0.0 **** -0.24
29937 H 45.50138357356947 100.02308432510594 81.66740582057537 H 0.0 **** 0.06
29938 H 44.76765252218304 98.57082365355666 80.94819848365273 H 0.0 **** 0.06
29939 H 46.323794753534756 98.45013467372416 81.80541270590533 H 0.0 **** 0.06
29940 H 46.23664042974423 99.27484787851404 80.23016640900926 H 0.0 **** 0.06
29941 C 105.64577932452366 136.23743680550237 36.872548313968 C 0.0 **** -0.24
29942 H 106.59717067652701 135.7674912762116 36.62102180308037 H 0.0 **** 0.06
29943 H 105.49127701150465 136.18832976588797 37.950491909034895 H 0.0 **** 0.06
29944 H 104.83655606206571 135.712711528531 36.36478562522042 H 0.0 **** 0.06
29945 H 105.66074633069414 137.27982392336025 36.55426080062779 H 0.0 **** 0.06
29946 C 35.2421936297164 145.60258170768137 108.07902536840524 C 0.0 **** -0.24
29947 H 35.407119045229564 146.67491664559554 107.97008836669755 H 0.0 **** 0.06
29948 H 36.18998726064015 145.10873515134386 108.29477681639179 H 0.0 **** 0.06
29949 H 34.826369485659086 145.2038695912652 107.15380281151042 H 0.0 **** 0.06
29950 H 34.54516222593821 145.42419260272493 108.8971942839191 H 0.0 **** 0.06
29951 C 84.48472694517379 90.27117666559384 80.76838452188707 C 0.0 **** -0.24
29952 H 84.72389292623792 89.46425844961861 81.46084569308431 H 0.0 **** 0.06
29953 H 84.93664034744059 91.19901486186988 81.1218820093955 H 0.0 **** 0.06
29954 H 83.40324718279925 90.39188219515623 80.71191743305712 H 0.0 **** 0.06
29955 H 84.87598186064884 90.03005854389858 79.78089606849159 H 0.0 **** 0.06
29956 C 77.7325834270956 77.4064706631969 55.24947368751474 C 0.0 **** -0.24
29957 H 77.05527353296657 77.87746975811288 54.537535490778 H 0.0 **** 0.06
29958 H 77.55401382464201 76.33081330491916 55.264673437528074 H 0.0 **** 0.06
29959 H 77.55825047557157 77.81784615509449 56.243736773906434 H 0.0 **** 0.06
29960 H 78.76318002348813 77.59886191020487 54.95218914036769 H 0.0 **** 0.06
29961 C 55.618139960608275 100.74000428601963 137.93973915361295 C 0.0 **** -0.24
29962 H 56.193929255442015 100.66813495597827 138.86157443948014 H 0.0 **** 0.06
29963 H 56.29457427515645 100.70581920111812 137.0850849041754 H 0.0 **** 0.06
29964 H 55.066194644032294 101.67975822919263 137.92893436107616 H 0.0 **** 0.06
29965 H 54.91752788683161 99.90735959677639 137.88248202077398 H 0.0 **** 0.06
29966 C 36.55422319291074 16.493780117978858 59.02595549607233 C 0.0 **** -0.24
29967 H 35.64490211757442 15.947493527713497 58.77611156980244 H 0.0 **** 0.06
29968 H 36.31522125882505 17.298903011161237 59.72210857892989 H 0.0 **** 0.06
29969 H 36.986477390873674 16.915312233071838 58.11774358312637 H 0.0 **** 0.06
29970 H 37.27112947004744 15.814408250868162 59.48841106153375 H 0.0 **** 0.06
29971 C 19.989683455579588 43.90854966186721 141.81960242833952 C 0.0 **** -0.24
29972 H 20.37148346749465 44.33816331399399 142.74573725415559 H 0.0 **** 0.06
29973 H 20.000425577057023 42.8210211978696 141.89168779818732 H 0.0 **** 0.06
29974 H 20.61998529695424 44.224344308107064 140.98796236072658 H 0.0 **** 0.06
29975 H 18.968929275280075 44.25256712144453 141.65283988262195 H 0.0 **** 0.06
29976 C 70.91355130880146 88.05207976726504 151.50852485008605 C 0.0 **** -0.24
29977 H 71.69071562168722 88.1744468084571 152.2624869003455 H 0.0 **** 0.06
29978 H 71.03035951604808 88.81655882383843 150.7395297196483 H 0.0 **** 0.06
29979 H 69.9345719069148 88.15380186009116 151.9762307236346 H 0.0 **** 0.06
29980 H 70.99931733051945 87.06385179570769 151.05640702311504 H 0.0 **** 0.06
29981 C 154.46763878842467 125.26757404798525 0.378783383231454 C 0.0 **** -0.24
29982 H 153.57894420010183 124.88556221776929 0.8802589246132229 H 0.0 **** 0.06
29983 H 154.19589662340596 126.12267291404794 -0.24093349618567572 H 0.0 **** 0.06
29984 H 154.89579227261697 124.4858659014794 -0.248451672114836 H 0.0 **** 0.06
29985 H 155.20032318147068 125.57859553187131 1.1239814080248323 H 0.0 **** 0.06
29986 C 151.2374794292915 109.7342147327945 142.49941945140006 C 0.0 **** -0.24
29987 H 151.05073083715718 110.72525912835198 142.0874573358166 H 0.0 **** 0.06
29988 H 150.716001064027 109.63261918233093 143.45179729148683 H 0.0 **** 0.06
29989 H 152.30805453524485 109.60076369084277 142.65476299618985 H 0.0 **** 0.06
29990 H 150.87439416936954 108.9770102664458 141.80368647084566 H 0.0 **** 0.06
29991 C 143.10409224886266 152.9929421820648 6.304144939231577 C 0.0 **** -0.24
29992 H 142.33713484273537 152.8804630386917 7.070870871208946 H 0.0 **** 0.06
29993 H 143.67466626941925 152.06813091564567 6.22255911995137 H 0.0 **** 0.06
29994 H 143.77248760444164 153.8100299988821 6.577317103792083 H 0.0 **** 0.06
29995 H 142.6307886397774 153.2148019890588 5.347726217262576 H 0.0 **** 0.06
29996 C 87.82157682838213 143.16904507178663 22.9638791980789 C 0.0 **** -0.24
29997 H 87.1471873022457 143.16142884041807 22.10775618879717 H 0.0 **** 0.06
29998 H 87.32250519379636 143.63383129446262 23.814675973092477 H 0.0 **** 0.06
29999 H 88.71826736722984 143.73638240065847 22.714541498370295 H 0.0 **** 0.06
30000 H 88.09776294430831 142.14597271507952 23.21776897240153 H 0.0 **** 0.06
30001 C 134.8049748117156 27.549451941147282 13.30165347491129 C 0.0 **** -0.24
30002 H 135.3825962409985 27.510169339396214 14.226025296387945 H 0.0 **** 0.06
30003 H 135.4696776113619 27.394486677789928 12.451921867440888 H 0.0 **** 0.06
30004 H 134.32523751811144 28.52393609617198 13.21499557434521 H 0.0 **** 0.06
30005 H 134.04468171035137 26.768696445123112 13.316009768483667 H 0.0 **** 0.06
30006 C 113.86645946349915 103.17842397882106 149.11690894076267 C 0.0 **** -0.24
30007 H 114.09868835506 104.22355617522464 149.32053918812358 H 0.0 **** 0.06
30008 H 112.83582776097023 102.9727673499844 149.40439019525252 H 0.0 **** 0.06
30009 H 114.53903832492563 102.53946086590753 149.6896075412757 H 0.0 **** 0.06
30010 H 113.99415005135063 102.97939717707584 148.05254325047878 H 0.0 **** 0.06
30011 C 31.923123822700376 118.0977718020074 34.73376499413257 C 0.0 **** -0.24
30012 H 31.627058421466188 118.98157875986908 35.29920677465074 H 0.0 **** 0.06
30013 H 32.0189963626284 118.35797511070706 33.67891922566855 H 0.0 **** 0.06
30014 H 31.16618090114028 117.32275762492941 34.849800608065294 H 0.0 **** 0.06
30015 H 32.878777379000894 117.73184239063801 35.10650182090748 H 0.0 **** 0.06
30016 C 146.2254979263992 123.07351594551989 131.77697275433047 C 0.0 **** -0.24
30017 H 146.04332669098443 122.75228523778935 132.8032131612753 H 0.0 **** 0.06
30018 H 145.2969360847123 123.4484635376476 131.34494485449818 H 0.0 **** 0.06
30019 H 146.5848248288518 122.22871199625231 131.19043777491706 H 0.0 **** 0.06
30020 H 146.97454267546266 123.86519481002298 131.77213668134993 H 0.0 **** 0.06
30021 C 93.12198475804597 81.66334674275043 59.41531449243067 C 0.0 **** -0.24
30022 H 92.94172859814263 82.25587092256228 60.312448082723435 H 0.0 **** 0.06
30023 H 92.18027217939554 81.50321144723688 58.890179303937245 H 0.0 **** 0.06
30024 H 93.54879248473927 80.70053431832201 59.696158317374525 H 0.0 **** 0.06
30025 H 93.81646094552366 82.19330725854803 58.76454995068107 H 0.0 **** 0.06
30026 C 49.47238486601452 78.65066421885933 153.14621819771077 C 0.0 **** -0.24
30027 H 49.62946057606686 79.29266256174532 152.27890151146158 H 0.0 **** 0.06
30028 H 49.76699410576791 79.18325588614823 154.04979571593395 H 0.0 **** 0.06
30029 H 50.07499496951158 77.74794474861545 153.0426204304316 H 0.0 **** 0.06
30030 H 48.418305232803704 78.37947276629069 153.2101650302595 H 0.0 **** 0.06
30031 C 57.628699238596084 36.88312508447143 45.761816001459366 C 0.0 **** -0.24
30032 H 58.13884264178239 37.00362841504267 44.80651422229086 H 0.0 **** 0.06
30033 H 57.769743276199904 37.78209825186485 46.36396694268288 H 0.0 **** 0.06
30034 H 58.0431840007077 36.023848906351816 46.288600278085525 H 0.0 **** 0.06
30035 H 56.56471388317971 36.7246888965571 45.5883888760673 H 0.0 **** 0.06
30036 C 123.33724183658967 58.55147986040804 37.48079972677034 C 0.0 **** -0.24
30037 H 122.74632799734559 59.306031687854826 37.99897749357663 H 0.0 **** 0.06
30038 H 122.92549047168336 58.38809552708008 36.484540097412435 H 0.0 **** 0.06
30039 H 123.30848736373582 57.61840551024952 38.04454375403249 H 0.0 **** 0.06
30040 H 124.36901750904462 58.8931372841416 37.39733100721838 H 0.0 **** 0.06
30041 C 142.61363127862595 43.73517729666128 26.95454254844293 C 0.0 **** -0.24
30042 H 142.34277521520966 43.28114074958199 27.90817176750184 H 0.0 **** 0.06
30043 H 143.015667729629 44.73339204211533 27.12942504173543 H 0.0 **** 0.06
30044 H 141.7290492990221 43.804656583087876 26.322289296590583 H 0.0 **** 0.06
30045 H 143.36628365552696 43.120871656470285 26.461287231813458 H 0.0 **** 0.06
30046 C 12.190895143148055 77.8357367500828 14.094397546761002 C 0.0 **** -0.24
30047 H 12.15685680956863 78.50421562884637 13.234126522025178 H 0.0 **** 0.06
30048 H 12.567389315048324 78.3785602122385 14.96211565808494 H 0.0 **** 0.06
30049 H 12.852244862306115 76.99637831759621 13.87577029541788 H 0.0 **** 0.06
30050 H 11.188989124712194 77.46318943641232 14.304153690932253 H 0.0 **** 0.06
30051 C 38.106923338935644 54.27714618354851 53.87933363223492 C 0.0 **** -0.24
30052 H 39.11630111058878 54.2615644815379 53.465744896749115 H 0.0 **** 0.06
30053 H 37.3940894494653 53.98440796799372 53.107682108264555 H 0.0 **** 0.06
30054 H 37.873003953375814 55.284006948657634 54.22678580172165 H 0.0 **** 0.06
30055 H 38.045668044861316 53.58008776898231 54.71490182390286 H 0.0 **** 0.06
30056 C 26.458809934927558 63.472123369866836 129.20732902225575 C 0.0 **** -0.24
30057 H 27.23472127208572 62.9763639607942 128.62368352040755 H 0.0 **** 0.06
30058 H 26.44538854687727 63.06087915460756 130.21723542939776 H 0.0 **** 0.06
30059 H 25.49007644330041 63.30898643452633 128.73584986496394 H 0.0 **** 0.06
30060 H 26.66620949825335 64.54145846472545 129.25266935082078 H 0.0 **** 0.06
30061 C 135.37759991705738 99.1777131739417 62.23254239241996 C 0.0 **** -0.24
30062 H 135.35123345056599 99.40644504264864 63.297768371286324 H 0.0 **** 0.06
30063 H 136.25585924253448 99.64269795137739 61.78306200957732 H 0.0 **** 0.06
30064 H 134.47768633185117 99.56597585429256 61.755179326031026 H 0.0 **** 0.06
30065 H 135.42654799339567 98.09797755847839 62.093834342198335 H 0.0 **** 0.06
30066 C 36.51073195707518 84.59389366829892 81.5698293917658 C 0.0 **** -0.24
30067 H 36.55990764766504 83.7082662373694 80.93439274320322 H 0.0 **** 0.06
30068 H 36.0352987394249 85.4074699641317 81.02181048030197 H 0.0 **** 0.06
30069 H 37.519327219348014 84.88976291448971 81.85789332977285 H 0.0 **** 0.06
30070 H 35.929353222229466 84.3675948481022 82.46278651322352 H 0.0 **** 0.06
30071 C 106.9754604760036 120.57703766071208 125.40502812152252 C 0.0 **** -0.24
30072 H 106.60418473179388 121.40720693180091 124.80531726112108 H 0.0 **** 0.06
30073 H 106.4287345852818 120.53640346089878 126.34765028768834 H 0.0 **** 0.06
30074 H 108.03741983819748 120.72106731263077 125.60738095438538 H 0.0 **** 0.06
30075 H 106.83264347681646 119.64357502259594 124.86106337068787 H 0.0 **** 0.06
30076 C 138.83778251276684 156.62111806322577 38.28077424027879 C 0.0 **** -0.24
30077 H 139.35152816110394 155.89193921318991 37.65515419805625 H 0.0 **** 0.06
30078 H 139.06716202092002 156.42694655838147 39.328406005851846 H 0.0 **** 0.06
30079 H 137.76201206311782 156.54172285700332 38.123287080739985 H 0.0 **** 0.06
30080 H 139.17092737401723 157.62548095924515 38.0158825933313 H 0.0 **** 0.06
30081 C 157.5105844648669 126.55855471142132 51.838854824382054 C 0.0 **** -0.24
30082 H 157.76577619433453 127.25270238392216 52.63804251968412 H 0.0 **** 0.06
30083 H 156.86078552642576 127.05632382265253 51.11854230167421 H 0.0 **** 0.06
30084 H 156.99463324542225 125.69474208911913 52.2585022479073 H 0.0 **** 0.06
30085 H 158.42202398200163 126.22873093438403 51.33882664335448 H 0.0 **** 0.06
30086 C 50.554780530401345 93.52730746203126 112.13465336451975 C 0.0 **** -0.24
30087 H 49.56473591501576 93.9821009765795 112.14421081400963 H 0.0 **** 0.06
30088 H 50.46002615921273 92.45584668371708 111.9576638944551 H 0.0 **** 0.06
30089 H 51.0408576852018 93.6955850191047 113.09574572472621 H 0.0 **** 0.06
30090 H 51.152092458122084 93.97559340120269 111.34103127698268 H 0.0 **** 0.06
30091 C 154.1891144370015 117.66957234768384 102.96640071877084 C 0.0 **** -0.24
30092 H 154.17019632453423 116.91304636010608 102.1812870830804 H 0.0 **** 0.06
30093 H 154.94624924818964 118.41851754563496 102.73015321956598 H 0.0 **** 0.06
30094 H 154.42945164014705 117.19783420826968 103.91914990419787 H 0.0 **** 0.06
30095 H 153.2128842972727 118.14851181928316 103.03267675866061 H 0.0 **** 0.06
30096 C 36.13546389108133 131.34512440764058 110.82740944597754 C 0.0 **** -0.24
30097 H 37.12134039371861 131.36258155683566 110.36301347277697 H 0.0 **** 0.06
30098 H 35.840627064863426 132.36059849761205 111.09207050509087 H 0.0 **** 0.06
30099 H 36.167084701297796 130.7293933368654 111.72551644798926 H 0.0 **** 0.06
30100 H 35.412165943427865 130.9281713969519 110.12579191686547 H 0.0 **** 0.06
30101 C 131.77477867171754 24.565531255078326 68.69650493374758 C 0.0 **** -0.24
30102 H 131.03145620260446 24.030514077399232 68.10641752633643 H 0.0 **** 0.06
30103 H 131.60980525196044 24.366533801108858 69.75590130490515 H 0.0 **** 0.06
30104 H 131.6853190643872 25.635821447428498 68.509813351068 H 0.0 **** 0.06
30105 H 132.77254732727184 24.230145513014122 68.41434371033336 H 0.0 **** 0.06
30106 C 85.06679578878153 7.182128206404116 49.24628439507187 C 0.0 **** -0.24
30107 H 84.90944127890094 6.722617883062497 50.221238561626876 H 0.0 **** 0.06
30108 H 84.13641937147386 7.157580993769983 48.677984259105344 H 0.0 **** 0.06
30109 H 85.83732563886544 6.631938857533839 48.70544124628681 H 0.0 **** 0.06
30110 H 85.38488153948144 8.216547800906852 49.3793837498246 H 0.0 **** 0.06
30111 C 0.9779167129963753 47.76244524782112 101.62786654895172 C 0.0 **** -0.24
30112 H 1.3056092011767007 47.616646820959545 100.59856955220562 H 0.0 **** 0.06
30113 H 0.05106812148839879 47.21468761839071 101.7954943988837 H 0.0 **** 0.06
30114 H 0.8099033454213469 48.82476325554674 101.80838483580226 H 0.0 **** 0.06
30115 H 1.7458858610341608 47.39577041760728 102.30908517611948 H 0.0 **** 0.06
30116 C 89.265843714038 140.45125996317847 133.94739577066122 C 0.0 **** -0.24
30117 H 88.76610036824128 139.513248998376 134.1914406563934 H 0.0 **** 0.06
30118 H 88.71811191863011 141.28103067643156 134.39434129899627 H 0.0 **** 0.06
30119 H 89.29547770541569 140.57635359723105 132.86463850841167 H 0.0 **** 0.06
30120 H 90.28260347073372 140.43377665735363 134.33982128861322 H 0.0 **** 0.06
30121 C 61.23659430131232 126.93954817542263 158.89901155401395 C 0.0 **** -0.24
30122 H 60.292907849994734 126.69397238774323 158.41260200414354 H 0.0 **** 0.06
30123 H 61.582614172278184 126.08002880963963 159.47424246732749 H 0.0 **** 0.06
30124 H 61.091049601776504 127.7880642673351 159.567025788215 H 0.0 **** 0.06
30125 H 61.979435845489576 127.19498675276023 158.1443120210568 H 0.0 **** 0.06
30126 C 4.16677675866049 2.148312124728889 102.06580076521823 C 0.0 **** -0.24
30127 H 5.240883046044047 2.1371485806617656 102.25180862640545 H 0.0 **** 0.06
30128 H 3.859171897747217 1.187631087491127 101.65327920446015 H 0.0 **** 0.06
30129 H 3.930231011459483 2.9412286724000722 101.35606255800971 H 0.0 **** 0.06
30130 H 3.638324460864652 2.328845834200969 103.00165042810667 H 0.0 **** 0.06
30131 C 128.97385884455525 123.55246889871466 144.78745337301632 C 0.0 **** -0.24
30132 H 128.3614649457345 122.72972767310287 144.41897619287892 H 0.0 **** 0.06
30133 H 128.69183176741393 123.78292452571011 145.81539832504558 H 0.0 **** 0.06
30134 H 128.81779437719968 124.43073142539788 144.16105120865467 H 0.0 **** 0.06
30135 H 130.02467217860726 123.26479169647712 144.75434719516284 H 0.0 **** 0.06
30136 C 62.04918810183301 86.6061271839834 46.502710233688504 C 0.0 **** -0.24
30137 H 60.960832620761266 86.67083587299436 46.502629710341466 H 0.0 **** 0.06
30138 H 62.44485866386043 87.14993872276045 47.3601387458466 H 0.0 **** 0.06
30139 H 62.437748125694895 87.04380404844937 45.58334908816681 H 0.0 **** 0.06
30140 H 62.3514108715043 85.56066881098917 46.56380886139641 H 0.0 **** 0.06
30141 C 96.0370034138586 66.22917699910026 1.662412363086375 C 0.0 **** -0.24
30142 H 95.19136784409929 66.27679814841666 0.9768311908864291 H 0.0 **** 0.06
30143 H 96.08850731164378 67.15240127977903 2.2401053185377435 H 0.0 **** 0.06
30144 H 96.95844871704193 66.10383215485061 1.0934395243134034 H 0.0 **** 0.06
30145 H 95.90891495008957 65.38359408719774 2.3386466115498337 H 0.0 **** 0.06
30146 C 104.9243548034631 100.16873951197528 43.944881672375175 C 0.0 **** -0.24
30147 H 105.50596965038295 101.05887321968788 44.18349640684147 H 0.0 **** 0.06
30148 H 104.0583913255137 100.45104043201673 43.34516479262675 H 0.0 **** 0.06
30149 H 104.58943810785533 99.69556603418914 44.86804445788732 H 0.0 **** 0.06
30150 H 105.5442316993329 99.47050084627313 43.382059081122804 H 0.0 **** 0.06
30151 C 130.50793386303553 129.84250595319136 37.237153840677536 C 0.0 **** -0.24
30152 H 130.89685858203555 129.01854066795022 37.83592896207631 H 0.0 **** 0.06
30153 H 131.22570716885755 130.66258282543723 37.237653417247316 H 0.0 **** 0.06
30154 H 129.56443336121555 130.18530461939238 37.662051166674644 H 0.0 **** 0.06
30155 H 130.3434473297952 129.5019691046128 36.21514812964392 H 0.0 **** 0.06
30156 C 139.67822859256677 160.28699625699312 101.52315660392969 C 0.0 **** -0.24
30157 H 139.1575785255738 159.7685750162324 100.71772020374601 H 0.0 **** 0.06
30158 H 140.28251554352943 159.57373250023457 102.08356087393005 H 0.0 **** 0.06
30159 H 138.9480850676705 160.74719238243077 102.18890716941584 H 0.0 **** 0.06
30160 H 140.32254763056807 161.0586119487949 101.10199267889593 H 0.0 **** 0.06
30161 C 47.07683816389459 41.33013683703385 84.42810953975994 C 0.0 **** -0.24
30162 H 46.98153722009104 41.29925701981571 83.34297313983203 H 0.0 **** 0.06
30163 H 46.08867096680865 41.43529276350681 84.87613708626503 H 0.0 **** 0.06
30164 H 47.69785623159814 42.1787650566302 84.71438309922978 H 0.0 **** 0.06
30165 H 47.53841563135404 40.407702685439176 84.77907720732516 H 0.0 **** 0.06
30166 C 39.794784821363734 30.913155235616784 87.34832550209761 C 0.0 **** -0.24
30167 H 40.57152201052433 31.21631222778774 88.04986096883452 H 0.0 **** 0.06
30168 H 39.507258820764434 31.766575196183567 86.73387612326096 H 0.0 **** 0.06
30169 H 38.92680130052781 30.553133506968607 87.90044759978139 H 0.0 **** 0.06
30170 H 40.17473066713018 30.116252987839346 86.70840844346075 H 0.0 **** 0.06
30171 C 90.3011879286489 50.4800767626911 97.68312192396718 C 0.0 **** -0.24
30172 H 91.36215672307402 50.33587557256554 97.88682780307323 H 0.0 **** 0.06
30173 H 89.7596944912044 49.56254564839 97.91536187513026 H 0.0 **** 0.06
30174 H 90.16456539165317 50.725909580388716 96.6300434068657 H 0.0 **** 0.06
30175 H 89.92054900668509 51.294343806588316 98.2995958032443 H 0.0 **** 0.06
30176 C 19.438042117281867 97.47043104203993 30.894158282536864 C 0.0 **** -0.24
30177 H 18.79559828427896 96.66749932160945 31.254443452389296 H 0.0 **** 0.06
30178 H 19.5522897570425 97.38702890447931 29.81374336589431 H 0.0 **** 0.06
30179 H 20.41528335005004 97.39488429165118 31.371049379452074 H 0.0 **** 0.06
30180 H 18.98771759130878 98.43332501153648 31.13892538410539 H 0.0 **** 0.06
30181 C 104.70048076288705 51.03229782105788 110.58810137834337 C 0.0 **** -0.24
30182 H 104.78575194882265 50.65565086794598 111.60754768031472 H 0.0 **** 0.06
30183 H 104.07126396287381 51.922666973816405 110.58132901865974 H 0.0 **** 0.06
30184 H 104.25380291520096 50.265662405643795 109.95385699419637 H 0.0 **** 0.06
30185 H 105.69176381369246 51.284459539835524 110.2096568285225 H 0.0 **** 0.06
30186 C 87.02323442378179 148.68554434613037 91.43355759877612 C 0.0 **** -0.24
30187 H 87.28610939962869 149.72408564059617 91.23513998201821 H 0.0 **** 0.06
30188 H 85.97095203883151 148.6257778621183 91.71504590420139 H 0.0 **** 0.06
30189 H 87.63903735149279 148.30454854430616 92.24824453780855 H 0.0 **** 0.06
30190 H 87.19418891234136 148.0894112742779 90.53760795958682 H 0.0 **** 0.06
30191 C 54.37118039112386 149.98465890494694 40.31676566478245 C 0.0 **** -0.24
30192 H 54.72471939869877 149.68404049724353 39.33017171695286 H 0.0 **** 0.06
30193 H 55.012935947152386 150.7745113024605 40.70665390661543 H 0.0 **** 0.06
30194 H 54.40071472540025 149.12669925886942 40.98967567005127 H 0.0 **** 0.06
30195 H 53.3473260409162 150.35150660437387 40.23983770409728 H 0.0 **** 0.06
30196 C 61.66573463912624 1.218010391728427 59.7981780268005 C 0.0 **** -0.24
30197 H 62.311674302770555 0.5119573482418502 59.27687112223629 H 0.0 **** 0.06
30198 H 60.65494983904408 0.8130043621975176 59.85440153838081 H 0.0 **** 0.06
30199 H 61.64880806666221 2.1636371266697836 59.255708262327445 H 0.0 **** 0.06
30200 H 62.047506348028136 1.3834427298044716 60.80573118425737 H 0.0 **** 0.06
30201 C 95.2685897166689 145.7313112210095 54.82735694752802 C 0.0 **** -0.24
30202 H 96.02923021934225 145.44117255401767 54.1025621938888 H 0.0 **** 0.06
30203 H 94.36828343015728 145.13871370074207 54.66368154393248 H 0.0 **** 0.06
30204 H 95.0351641545351 146.78924347029024 54.70487945126371 H 0.0 **** 0.06
30205 H 95.64199499427711 145.55592340639805 55.83609896534277 H 0.0 **** 0.06
30206 C 66.02613107545152 104.45045117236043 21.009063598603205 C 0.0 **** -0.24
30207 H 65.87122770143509 104.43584254152074 19.93048797706396 H 0.0 **** 0.06
30208 H 66.68080264012514 105.28282320651113 21.27122167559247 H 0.0 **** 0.06
30209 H 66.48610842451001 103.51342656371037 21.323206213361743 H 0.0 **** 0.06
30210 H 65.0664443754341 104.57097580463841 21.511971261055123 H 0.0 **** 0.06
30211 C 155.85136119624696 136.80192511189836 63.29884392695163 C 0.0 **** -0.24
30212 H 156.78313989613474 137.0363449414797 63.811801624180205 H 0.0 **** 0.06
30213 H 155.07530831017053 137.49962288432894 63.61817710740701 H 0.0 **** 0.06
30214 H 155.5476585943289 135.7841761589951 63.54358184720938 H 0.0 **** 0.06
30215 H 155.997206690523 136.8887272117625 62.22211028071561 H 0.0 **** 0.06
30216 C 37.418923556799 132.57293739226157 85.27829976763215 C 0.0 **** -0.24
30217 H 38.46078369999529 132.3997265106768 85.01143979353839 H 0.0 **** 0.06
30218 H 36.775595165300274 132.24563950558456 84.46112319539253 H 0.0 **** 0.06
30219 H 37.26277130304385 133.63625346598278 85.46004754768234 H 0.0 **** 0.06
30220 H 37.1772355917449 132.01034214783445 86.17989799603595 H 0.0 **** 0.06
30221 C 22.38774328903672 106.9023594674702 67.10251352628585 C 0.0 **** -0.24
30222 H 23.177521381682467 106.43998828571551 66.50974937856577 H 0.0 **** 0.06
30223 H 22.474329100833046 106.57591207920876 68.13902925973619 H 0.0 **** 0.06
30224 H 21.416306261777883 106.60541866062749 66.70701748256073 H 0.0 **** 0.06
30225 H 22.48457954577067 107.9865352182612 67.05241848465107 H 0.0 **** 0.06
30226 C 134.28358220565667 65.94451249450796 25.705033270546892 C 0.0 **** -0.24
30227 H 134.04948443846712 65.54928815176436 24.71624318739108 H 0.0 **** 0.06
30228 H 135.26209062899025 65.58266401784743 26.018007309261243 H 0.0 **** 0.06
30229 H 133.52780590087454 65.61276597590259 26.416515709596226 H 0.0 **** 0.06
30230 H 134.29287400875924 67.03347547706127 25.666782526326358 H 0.0 **** 0.06
30231 C 56.46856853869362 118.63962863032546 75.0929443916728 C 0.0 **** -0.24
30232 H 57.258608567983416 117.91327955665705 75.28226849406434 H 0.0 **** 0.06
30233 H 56.84618328199531 119.42520871445126 74.43816587653271 H 0.0 **** 0.06
30234 H 56.143461116934404 119.07801650176651 76.03707951422594 H 0.0 **** 0.06
30235 H 55.62474297739983 118.14143872382988 74.61406325910038 H 0.0 **** 0.06
30236 C 99.46743078946156 71.60995312405052 136.87931853427233 C 0.0 **** -0.24
30237 H 100.37910616636134 71.29442142594456 136.37230709395385 H 0.0 **** 0.06
30238 H 99.08987176160372 70.7893703280641 137.49115591152167 H 0.0 **** 0.06
30239 H 98.71682664584819 71.88610804441318 136.13912618165097 H 0.0 **** 0.06
30240 H 99.68251042601929 72.46824201635883 137.51579224200992 H 0.0 **** 0.06
30241 C 29.377890476960204 29.479367254460463 25.675415836137063 C 0.0 **** -0.24
30242 H 28.386039897202267 29.36060770588223 25.23765620426599 H 0.0 **** 0.06
30243 H 29.93631915135518 30.226414894626927 25.110992141777757 H 0.0 **** 0.06
30244 H 29.906479078069026 28.526048128257514 25.639157959338206 H 0.0 **** 0.06
30245 H 29.281095324909415 29.802163543793966 26.711336232527202 H 0.0 **** 0.06
30246 C 66.0967013733781 90.62853599252198 112.20268001820932 C 0.0 **** -0.24
30247 H 66.18556661565289 90.21123689678564 113.20585562507705 H 0.0 **** 0.06
30248 H 66.79373589922281 90.120961307483 111.53541943671325 H 0.0 **** 0.06
30249 H 66.32806868426711 91.69270622496191 112.23053139857109 H 0.0 **** 0.06
30250 H 65.0783095885517 90.48737058378636 111.84002816053282 H 0.0 **** 0.06
30251 C 57.16551769385984 9.996027858902387 102.86848423853235 C 0.0 **** -0.24
30252 H 56.83280277294713 10.75849896661888 103.5730411617559 H 0.0 **** 0.06
30253 H 58.23667115658367 10.100229631541659 102.70025505468439 H 0.0 **** 0.06
30254 H 56.635183959424296 10.116907289793339 101.92395729554121 H 0.0 **** 0.06
30255 H 56.95629281704572 9.007358944257426 103.27826419899347 H 0.0 **** 0.06
30256 C 99.67576541298439 3.0612849788573158 67.59795093001013 C 0.0 **** -0.24
30257 H 99.41516430369961 2.933918020271733 68.64772781925844 H 0.0 **** 0.06
30258 H 99.6217147445405 4.118039248457109 67.33463586872273 H 0.0 **** 0.06
30259 H 98.97720920732968 2.496528900941314 66.97920162167242 H 0.0 **** 0.06
30260 H 100.68862286119719 2.6950333535141056 67.4277380652734 H 0.0 **** 0.06
30261 C 113.32735156350287 73.91297667034098 101.33708313176265 C 0.0 **** -0.24
30262 H 113.4023908419316 73.70811898738631 102.4058133797802 H 0.0 **** 0.06
30263 H 112.439098289301 73.42369035540489 100.93579655244275 H 0.0 **** 0.06
30264 H 114.21410706006634 73.52851612170379 100.83160842569654 H 0.0 **** 0.06
30265 H 113.25547736294646 74.98782641390731 101.17737740323514 H 0.0 **** 0.06
30266 C 114.78782146452238 102.51925209988644 158.29158989215404 C 0.0 **** -0.24
30267 H 115.8402364548262 102.72325055183666 158.09768234671563 H 0.0 **** 0.06
30268 H 114.70224578596032 101.70938114404751 159.01683449019094 H 0.0 **** 0.06
30269 H 114.2970807084038 102.22805730337492 157.36234665854468 H 0.0 **** 0.06
30270 H 114.31059549104504 103.41518248673185 158.68829754186794 H 0.0 **** 0.06
30271 C 32.94104095926322 26.703773076646883 101.65034007856218 C 0.0 **** -0.24
30272 H 33.06093574683008 26.00867410994897 102.48158705425033 H 0.0 **** 0.06
30273 H 32.20720264457521 26.308703988693935 100.94874150286506 H 0.0 **** 0.06
30274 H 33.89694590796731 26.8319999534898 101.14342743867667 H 0.0 **** 0.06
30275 H 32.59960865967034 27.667491049471153 102.0299629835472 H 0.0 **** 0.06
30276 C 66.43867546310469 127.18982971260348 24.781383130063148 C 0.0 **** -0.24
30277 H 66.13823234665296 126.762061930854 23.82478210473235 H 0.0 **** 0.06
30278 H 66.48528801396705 128.27566856768325 24.694872292955324 H 0.0 **** 0.06
30279 H 67.42003923962884 126.80422112583432 25.059429963024627 H 0.0 **** 0.06
30280 H 65.71142427039365 126.91640840629674 25.5464140920013 H 0.0 **** 0.06
30281 C 145.84713612187514 9.054459151363346 15.788691094326964 C 0.0 **** -0.24
30282 H 146.76976689463308 9.452310823393105 16.211306003171757 H 0.0 **** 0.06
30283 H 145.74187341996267 8.005232171782438 16.067939048991605 H 0.0 **** 0.06
30284 H 145.87837747533797 9.139421859143255 14.70214694323613 H 0.0 **** 0.06
30285 H 144.9980664553484 9.61998905334869 16.173277240439575 H 0.0 **** 0.06
30286 C 7.887814280667854 45.20136913356234 96.71764110475016 C 0.0 **** -0.24
30287 H 7.946585598272584 46.17850346206107 96.23799092131246 H 0.0 **** 0.06
30288 H 8.73176012677417 44.588984766213926 96.39907137800074 H 0.0 **** 0.06
30289 H 6.955998010662448 44.71275788010463 96.43386774238789 H 0.0 **** 0.06
30290 H 7.917580509263402 45.32625596366188 97.80034379990414 H 0.0 **** 0.06
30291 C 146.64873819454056 123.59538520969028 99.36068467208446 C 0.0 **** -0.24
30292 H 147.51563560532085 124.07795322774058 98.90813315485155 H 0.0 **** 0.06
30293 H 146.05408482543723 124.33947529058014 99.89074050146274 H 0.0 **** 0.06
30294 H 146.9843631644253 122.83079430089171 100.06210146093576 H 0.0 **** 0.06
30295 H 146.0440951197709 123.13254759374638 98.58177395745042 H 0.0 **** 0.06
30296 C 47.8843035791304 124.67324727864201 44.405815819241525 C 0.0 **** -0.24
30297 H 48.27656501694973 125.6845152898137 44.51665286836209 H 0.0 **** 0.06
30298 H 48.709335300547096 123.96089605437649 44.413448000838855 H 0.0 **** 0.06
30299 H 47.34372424910865 124.5954022581551 43.462716680673225 H 0.0 **** 0.06
30300 H 47.20802203937026 124.45413992715902 45.23184371881814 H 0.0 **** 0.06
30301 C 139.1666311475579 140.2725194717641 34.52882883884121 C 0.0 **** -0.24
30302 H 139.81594207912116 139.4138753784443 34.70245348790573 H 0.0 **** 0.06
30303 H 139.45949820727458 140.76676187783144 33.60228191699966 H 0.0 **** 0.06
30304 H 139.2595178107847 140.9717422390048 35.359294020913694 H 0.0 **** 0.06
30305 H 138.13319762221772 139.9352581439867 34.45010910748155 H 0.0 **** 0.06
30306 C 97.3257290414769 75.8064847420406 53.42098573000864 C 0.0 **** -0.24
30307 H 96.74325425242952 74.88522526606555 53.41171462733158 H 0.0 **** 0.06
30308 H 98.28562009140188 75.623295645663 53.90434460053572 H 0.0 **** 0.06
30309 H 96.78186504881813 76.57391375367742 53.97116252450691 H 0.0 **** 0.06
30310 H 97.49208406727266 76.14159409366083 52.397879898738964 H 0.0 **** 0.06
30311 C 120.64155032272674 32.06920270795945 23.514124179752756 C 0.0 **** -0.24
30312 H 120.76294386938866 32.71003718261454 22.641076286328115 H 0.0 **** 0.06
30313 H 120.55190651682062 32.686069687655504 24.408143175715686 H 0.0 **** 0.06
30314 H 121.50796538324022 31.415075593459846 23.60816935912738 H 0.0 **** 0.06
30315 H 119.741857896807 31.46516987212931 23.397540640597327 H 0.0 **** 0.06
30316 C 27.229767732706733 142.09731594484796 129.3443120159522 C 0.0 **** -0.24
30317 H 27.950454009937403 141.69255536820742 130.05517700650802 H 0.0 **** 0.06
30318 H 26.935267788030643 143.0997480430212 129.6570748124028 H 0.0 **** 0.06
30319 H 26.350031539362874 141.45363699752932 129.3134650997778 H 0.0 **** 0.06
30320 H 27.682462517366474 142.14387986766525 128.35435239085362 H 0.0 **** 0.06
30321 C 105.15862056582796 67.0548589204567 72.01965312630261 C 0.0 **** -0.24
30322 H 105.57774391192291 66.05783745111091 71.88573653779311 H 0.0 **** 0.06
30323 H 105.51379850886156 67.70757711445248 71.222053946512 H 0.0 **** 0.06
30324 H 105.47247432571484 67.45440373140548 72.98361608985648 H 0.0 **** 0.06
30325 H 104.07028258517272 66.99850931808442 71.9852723139872 H 0.0 **** 0.06
30326 C 134.5075280939846 96.95858624676174 52.947374145349784 C 0.0 **** -0.24
30327 H 133.82048379632002 97.61495292312262 52.41272492103124 H 0.0 **** 0.06
30328 H 134.0708815403018 96.68142806714687 53.90734758998964 H 0.0 **** 0.06
30329 H 135.45114372805295 97.47876800054149 53.11268095354137 H 0.0 **** 0.06
30330 H 134.68591634974075 96.06060113616964 52.356318978313055 H 0.0 **** 0.06
30331 C 27.00148735084781 104.55512359901249 9.766641123205716 C 0.0 **** -0.24
30332 H 27.766992000236826 105.16861425956151 10.24281832508882 H 0.0 **** 0.06
30333 H 26.098838775834622 104.56183333943838 10.377645531239125 H 0.0 **** 0.06
30334 H 27.366506321582193 103.53252366911067 9.6661004890355 H 0.0 **** 0.06
30335 H 26.776017650890054 104.95870857682377 8.778655046251004 H 0.0 **** 0.06
30336 C 15.07081923787868 2.2362426236600754 42.36139519562545 C 0.0 **** -0.24
30337 H 14.345149343823692 3.0328697606917103 42.524965551224085 H 0.0 **** 0.06
30338 H 14.563055575364217 1.3576816676203407 41.96380928620431 H 0.0 **** 0.06
30339 H 15.550021438873927 1.9824471672359039 43.30697013949714 H 0.0 **** 0.06
30340 H 15.825721519152296 2.5729094897809546 41.65065485549326 H 0.0 **** 0.06
30341 C 121.6124058240224 61.529023935878485 148.80271608858192 C 0.0 **** -0.24
30342 H 122.12829952903198 60.58061230337128 148.65341802800594 H 0.0 **** 0.06
30343 H 120.58860706483932 61.44798406488573 148.43664162181625 H 0.0 **** 0.06
30344 H 122.13206803033651 62.31560024071602 148.25714509182893 H 0.0 **** 0.06
30345 H 121.59913336339591 61.771275033827564 149.86596494994774 H 0.0 **** 0.06
30346 C 114.29286441702575 153.2971136290008 7.3276577278605615 C 0.0 **** -0.24
30347 H 115.25447332698369 153.29931184107716 6.814218019091733 H 0.0 **** 0.06
30348 H 114.3110710358365 152.55906046873764 8.12984967593733 H 0.0 **** 0.06
30349 H 113.50389773989696 153.04493094843997 6.618388833266565 H 0.0 **** 0.06
30350 H 114.1020251340978 154.2846985972116 7.747282734640486 H 0.0 **** 0.06
30351 C 138.992589996876 145.6628605721272 115.94240848602325 C 0.0 **** -0.24
30352 H 139.33600764146075 146.68813674566104 115.80226939330382 H 0.0 **** 0.06
30353 H 139.8072432151057 144.97335819057778 115.72206230067604 H 0.0 **** 0.06
30354 H 138.15608119363515 145.465745046248 115.27308920360062 H 0.0 **** 0.06
30355 H 138.671277898445 145.52673806249913 116.9757497161234 H 0.0 **** 0.06
30356 C 85.81034881224207 84.06224312540951 7.032896266357881 C 0.0 **** -0.24
30357 H 86.88721065203961 83.98321429000549 6.879260597716012 H 0.0 **** 0.06
30358 H 85.41555724539379 83.09276680069888 7.338883470057908 H 0.0 **** 0.06
30359 H 85.33312060469999 84.37231646114338 6.102776033336454 H 0.0 **** 0.06
30360 H 85.60754620528546 84.79963306653161 7.809795901847281 H 0.0 **** 0.06
30361 C 73.15636410039122 47.28338272325 113.17211182241613 C 0.0 **** -0.24
30362 H 73.6771288693418 46.34610275668557 112.97489318695824 H 0.0 **** 0.06
30363 H 72.59562497377459 47.198204553484345 114.10260478264541 H 0.0 **** 0.06
30364 H 72.47109580977991 47.49599608371379 112.3517029135964 H 0.0 **** 0.06
30365 H 73.88274249689937 48.09112700451014 113.25717317223541 H 0.0 **** 0.06
30366 C 59.19231444479237 66.95842367100131 99.15987539809436 C 0.0 **** -0.24
30367 H 58.823009310660154 67.11218465916866 98.14532812490722 H 0.0 **** 0.06
30368 H 59.546905703166544 65.93308655249011 99.26654638142554 H 0.0 **** 0.06
30369 H 58.38658891132923 67.1402218621663 99.87030949347348 H 0.0 **** 0.06
30370 H 60.01274388917733 67.6494916074699 99.35549113189666 H 0.0 **** 0.06
30371 C 98.6054418450766 56.9256913232437 95.72645313003875 C 0.0 **** -0.24
30372 H 97.78068950662089 57.501661763670654 95.30597779465992 H 0.0 **** 0.06
30373 H 99.47149035761703 57.5739232434792 95.8559180841171 H 0.0 **** 0.06
30374 H 98.85996671011861 56.10975513607575 95.04958305009102 H 0.0 **** 0.06
30375 H 98.30772978270909 56.51801893734563 96.69231574866842 H 0.0 **** 0.06
30376 C 96.27464005651407 51.60835231922445 51.13471371282186 C 0.0 **** -0.24
30377 H 96.83597559295904 51.816074373609865 52.04582667383312 H 0.0 **** 0.06
30378 H 96.27109660393359 50.53394596869519 50.947950953714255 H 0.0 **** 0.06
30379 H 96.74221800042622 52.121925494267074 50.29504336324959 H 0.0 **** 0.06
30380 H 95.24971700101163 51.960281271913246 51.25187854055274 H 0.0 **** 0.06
30381 C 27.101852759018414 62.05195994576805 56.460071051117836 C 0.0 **** -0.24
30382 H 28.190927712916448 62.10264751554007 56.4629672317497 H 0.0 **** 0.06
30383 H 26.780513807726777 61.16631288121383 55.910221555780026 H 0.0 **** 0.06
30384 H 26.698027933327154 62.94404984810686 55.98036489125093 H 0.0 **** 0.06
30385 H 26.73871047594679 61.995279816528026 57.48563229435979 H 0.0 **** 0.06
30386 C 87.26768750441944 107.16619612868121 110.50482384658636 C 0.0 **** -0.24
30387 H 87.90640742544137 107.73086180570377 111.18444315871366 H 0.0 **** 0.06
30388 H 86.28528595913971 107.63649219040317 110.45615464792004 H 0.0 **** 0.06
30389 H 87.16341592069944 106.14454286900676 110.86901731861104 H 0.0 **** 0.06
30390 H 87.71524858364968 107.15452573352633 109.51115099800177 H 0.0 **** 0.06
30391 C 58.73142029682583 86.85354331384954 32.542258022910914 C 0.0 **** -0.24
30392 H 58.00149220722551 86.04482245778664 32.59042905526178 H 0.0 **** 0.06
30393 H 59.332170338454944 86.85492105254386 33.45136435516076 H 0.0 **** 0.06
30394 H 58.21046672486284 87.80713861664805 32.44844291977381 H 0.0 **** 0.06
30395 H 59.379044027237455 86.70759604807449 31.67717780416507 H 0.0 **** 0.06
30396 C 129.2136844697821 28.465920032855166 40.977033429486326 C 0.0 **** -0.24
30397 H 128.29333008012168 27.913149766931383 40.789313748271056 H 0.0 **** 0.06
30398 H 130.03491939349786 27.99992395847181 40.43215479548249 H 0.0 **** 0.06
30399 H 129.43271011832812 28.45289135440811 42.04472948884401 H 0.0 **** 0.06
30400 H 129.09333578378187 29.496568358764307 40.64315608561067 H 0.0 **** 0.06
30401 C 14.744015164171309 10.359419781788887 44.64504485207678 C 0.0 **** -0.24
30402 H 14.41196086507555 9.325947212735564 44.734511012634314 H 0.0 **** 0.06
30403 H 15.131325385996277 10.701031261044754 45.60551050914428 H 0.0 **** 0.06
30404 H 13.902585899881124 10.986838942378625 44.34799788587212 H 0.0 **** 0.06
30405 H 15.5282858019525 10.424950667822259 43.89171949837727 H 0.0 **** 0.06
30406 C 29.15179017167071 47.89892910956502 55.47970557644631 C 0.0 **** -0.24
30407 H 28.677007765062058 47.36520078651779 54.656358382393165 H 0.0 **** 0.06
30408 H 30.121253247716083 48.27771333732676 55.154933763722525 H 0.0 **** 0.06
30409 H 29.288868241604746 47.22017604255848 56.32112147468456 H 0.0 **** 0.06
30410 H 28.519274844044276 48.73371661292197 55.784608995713654 H 0.0 **** 0.06
30411 C 25.313118622743673 132.69697531337545 161.38712419447435 C 0.0 **** -0.24
30412 H 24.940193010905546 133.56810898412027 160.84974776221372 H 0.0 **** 0.06
30413 H 24.52573935501198 132.30387445691176 162.0313233120547 H 0.0 **** 0.06
30414 H 26.170512409504227 132.98576808431514 161.9953178277225 H 0.0 **** 0.06
30415 H 25.615664441801414 131.93115724539288 160.67303066757404 H 0.0 **** 0.06
30416 C 157.2573454157523 126.15423113762225 44.61046625665661 C 0.0 **** -0.24
30417 H 156.74422846604182 125.22198879245806 44.37739755655686 H 0.0 **** 0.06
30418 H 156.59126150593076 126.99430294556339 44.41237169738514 H 0.0 **** 0.06
30419 H 158.14901273576422 126.24291602909847 43.98863888374241 H 0.0 **** 0.06
30420 H 157.54507563626726 126.15820547394975 45.66128372327829 H 0.0 **** 0.06
30421 C 93.6861306877242 25.670189101116136 82.58954548867015 C 0.0 **** -0.24
30422 H 94.08779414986464 26.62831242291054 82.9213180895546 H 0.0 **** 0.06
30423 H 94.34523420283286 24.866613970696278 82.91721362014535 H 0.0 **** 0.06
30424 H 93.61544712804331 25.663307681435526 81.50225651587282 H 0.0 **** 0.06
30425 H 92.6942665780305 25.52456752846888 83.01902056598163 H 0.0 **** 0.06
30426 C 124.60393402146306 46.72938510651909 160.92544600641014 C 0.0 **** -0.24
30427 H 124.96281473451768 47.26123670434606 161.80655914623426 H 0.0 **** 0.06
30428 H 125.39852199069199 46.6856622901397 160.18042913591364 H 0.0 **** 0.06
30429 H 123.74393940330333 47.25402364129752 160.5096136965453 H 0.0 **** 0.06
30430 H 124.31114313352222 45.71774519966266 161.20569417854887 H 0.0 **** 0.06
30431 C 118.97341509362198 122.20766573976269 79.60858710859611 C 0.0 **** -0.24
30432 H 119.70305364084896 122.08161248244579 78.80843522627583 H 0.0 **** 0.06
30433 H 118.08734529278644 121.61260085093932 79.38945263828145 H 0.0 **** 0.06
30434 H 118.69608574180452 123.25908363447749 79.6841628799923 H 0.0 **** 0.06
30435 H 119.40911548878063 121.8788489615236 80.55249312744075 H 0.0 **** 0.06
30436 C 34.26677258387454 58.9062899780629 56.247780149015114 C 0.0 **** -0.24
30437 H 33.30575895568572 58.99427960347349 56.75502121859702 H 0.0 **** 0.06
30438 H 34.50094024449294 57.852164727978035 56.09584151050504 H 0.0 **** 0.06
30439 H 35.0430572614988 59.367655433430585 56.857024622200655 H 0.0 **** 0.06
30440 H 34.215036546767394 59.40920387394492 55.281724314884016 H 0.0 **** 0.06
30441 C 2.4239414646486352 24.328502197051876 108.64271879280977 C 0.0 **** -0.24
30442 H 1.8307475609624362 24.572285506175092 107.7617048721471 H 0.0 **** 0.06
30443 H 3.482156698479457 24.456809031069042 108.4141936446888 H 0.0 **** 0.06
30444 H 2.237555439635287 23.293336979501134 108.93103999947209 H 0.0 **** 0.06
30445 H 2.1452655027412106 24.98957191396096 109.4625305719324 H 0.0 **** 0.06
30446 C 32.97850555349922 85.94875877212078 78.9078862773739 C 0.0 **** -0.24
30447 H 33.91697717205574 85.82773791929823 78.36637187713544 H 0.0 **** 0.06
30448 H 33.18559703824843 86.29880871904437 79.91931843872116 H 0.0 **** 0.06
30449 H 32.46093129664882 84.98984557893365 78.95374775028074 H 0.0 **** 0.06
30450 H 32.352399894144554 86.67540976413528 78.39213940889856 H 0.0 **** 0.06
30451 C 35.03463873569717 119.04066197790056 88.49208903822893 C 0.0 **** -0.24
30452 H 35.13464760034293 120.11185320432091 88.31691929087916 H 0.0 **** 0.06
30453 H 35.300586037665994 118.8156207578647 89.52558281149352 H 0.0 **** 0.06
30454 H 35.697868595445016 118.49895156736522 87.8183332849512 H 0.0 **** 0.06
30455 H 34.00309817233415 118.7379327781747 88.30824944400877 H 0.0 **** 0.06
30456 C 142.53505153465076 101.44462159480977 89.12187100622023 C 0.0 **** -0.24
30457 H 142.4521306299497 100.64654572309078 88.3844967017204 H 0.0 **** 0.06
30458 H 142.1943556212567 101.07969008993695 90.091013492563 H 0.0 **** 0.06
30459 H 141.91872296850283 102.28956957605538 88.81411806025552 H 0.0 **** 0.06
30460 H 143.57443412765008 101.76157607384138 89.19853583380527 H 0.0 **** 0.06
30461 C 48.735216235430244 0.6172238688819931 46.14612172766704 C 0.0 **** -0.24
30462 H 48.954495712002796 1.5410132028865178 45.61116227139917 H 0.0 **** 0.06
30463 H 48.174023838394504 0.8469494422933579 47.05121458156236 H 0.0 **** 0.06
30464 H 49.66929824487879 0.12176177656779075 46.41257622172179 H 0.0 **** 0.06
30465 H 48.14402820559019 -0.040372877612202984 45.50818120339659 H 0.0 **** 0.06
30466 C 12.608668313916382 135.01441631977622 158.2475269062239 C 0.0 **** -0.24
30467 H 11.732043249376261 134.36884952029254 158.19954938795024 H 0.0 **** 0.06
30468 H 13.072966549904407 135.07007782972727 157.26250821333196 H 0.0 **** 0.06
30469 H 13.321727185416137 134.60614859527948 158.96304443682536 H 0.0 **** 0.06
30470 H 12.306986013025153 136.01302567276798 158.56405339011175 H 0.0 **** 0.06
30471 C 67.16761125041985 82.20158369454195 145.89792448828157 C 0.0 **** -0.24
30472 H 68.22236918810881 82.27648606016281 146.16483125569707 H 0.0 **** 0.06
30473 H 66.86360495501285 81.15503231649119 145.91232015306355 H 0.0 **** 0.06
30474 H 67.01637908758514 82.61077146144963 144.89890994019024 H 0.0 **** 0.06
30475 H 66.57047296422 82.76427383023501 146.6151096230668 H 0.0 **** 0.06
30476 C 34.740562403747674 132.80726799299603 100.09121896391264 C 0.0 **** -0.24
30477 H 34.87590359998211 133.54469058312236 100.8830248550027 H 0.0 **** 0.06
30478 H 34.08926681238546 132.0088073254191 100.44677974960405 H 0.0 **** 0.06
30479 H 35.70863834845345 132.39192930165515 99.81365176308202 H 0.0 **** 0.06
30480 H 34.28790356881592 133.28740983887013 99.22354929838298 H 0.0 **** 0.06
30481 C 100.00669545561848 130.35952159463406 129.84059540108402 C 0.0 **** -0.24
30482 H 99.7792637754767 129.29542880015597 129.9052654443355 H 0.0 **** 0.06
30483 H 99.4826913344119 130.89097431560972 130.63498103872442 H 0.0 **** 0.06
30484 H 99.68398090403139 130.741624713652 128.87232200558705 H 0.0 **** 0.06
30485 H 101.08132026852235 130.50793626078465 129.9503336258868 H 0.0 **** 0.06
30486 C 113.76022706740082 158.560951011937 93.43479847256256 C 0.0 **** -0.24
30487 H 114.1748336092071 159.11551040453233 92.59359509646033 H 0.0 **** 0.06
30488 H 113.09761513559499 159.210501197885 94.0067301458218 H 0.0 **** 0.06
30489 H 114.57059207365319 158.21265780362123 94.07561534968038 H 0.0 **** 0.06
30490 H 113.19745091252258 157.70431256841147 93.06286506994425 H 0.0 **** 0.06
30491 C 81.09390196519405 64.7215265642003 57.35772877831202 C 0.0 **** -0.24
30492 H 81.84240234880781 64.61585250094909 56.57210925236025 H 0.0 **** 0.06
30493 H 81.2357464677383 65.67506281073771 57.86802738643539 H 0.0 **** 0.06
30494 H 81.20135728375851 63.906466794167855 58.073700002044845 H 0.0 **** 0.06
30495 H 80.09750610462243 64.68961835407298 56.916600655691624 H 0.0 **** 0.06
30496 C 63.92207932271407 3.6313991189562103 26.582871829419247 C 0.0 **** -0.24
30497 H 64.90495136323204 3.7216150509166823 26.11988532152344 H 0.0 **** 0.06
30498 H 63.24713333386023 4.3677604065298965 26.14694315004766 H 0.0 **** 0.06
30499 H 64.00914139091367 3.8064674557438707 27.654924119290854 H 0.0 **** 0.06
30500 H 63.529830071821095 2.630112722102581 26.408195277875734 H 0.0 **** 0.06
30501 C 23.608977898852743 100.28226868665175 38.793543272788895 C 0.0 **** -0.24
30502 H 24.170587339811107 101.19005358140603 39.01360524284462 H 0.0 **** 0.06
30503 H 23.978746834390506 99.46694206348926 39.41576132465556 H 0.0 **** 0.06
30504 H 23.734781477937815 100.02368273347804 37.74200314987036 H 0.0 **** 0.06
30505 H 22.55245265474406 100.44905225351263 39.003870428095695 H 0.0 **** 0.06
30506 C 74.04765789269973 135.3865958493963 159.8787617096849 C 0.0 **** -0.24
30507 H 74.15788073880158 135.19128976369825 160.94591930989094 H 0.0 **** 0.06
30508 H 73.37213580925183 136.2287405948704 159.73121180487405 H 0.0 **** 0.06
30509 H 73.63920436547575 134.50218281202226 159.38899219731022 H 0.0 **** 0.06
30510 H 75.0225253897166 135.6212793233309 159.45102125641384 H 0.0 **** 0.06
30511 C 74.50913952595953 96.71680948564179 11.38189028579859 C 0.0 **** -0.24
30512 H 74.01574638206695 95.7455181641392 11.39967234985022 H 0.0 **** 0.06
30513 H 75.43043015759748 96.6662278633847 11.961747950564813 H 0.0 **** 0.06
30514 H 73.84820077966613 97.46818339879039 11.814031551595065 H 0.0 **** 0.06
30515 H 74.74170568248235 96.9864291032373 10.352078615559606 H 0.0 **** 0.06
30516 C 159.71020197623614 12.488564758022648 99.74649457215264 C 0.0 **** -0.24
30517 H 159.93949853191907 11.464047967155977 100.03982935590744 H 0.0 **** 0.06
30518 H 160.4231642512131 12.81890706434595 98.99161472320057 H 0.0 **** 0.06
30519 H 159.77515764454637 13.138905365727112 100.61872602448392 H 0.0 **** 0.06
30520 H 158.70110207938802 12.531060436626206 99.33661730886891 H 0.0 **** 0.06
30521 C 80.49772473704972 48.361368258198894 9.334825475855467 C 0.0 **** -0.24
30522 H 79.41650165546918 48.2272516614545 9.309247562583934 H 0.0 **** 0.06
30523 H 80.97116456699534 47.61764456381428 8.692496352511945 H 0.0 **** 0.06
30524 H 80.8553114023585 48.23998205217056 10.356132945885548 H 0.0 **** 0.06
30525 H 80.747494203927 49.360696933922824 8.978457316014875 H 0.0 **** 0.06
30526 C 149.78981347182105 13.603402270630554 146.81589077822076 C 0.0 **** -0.24
30527 H 149.20546047639527 13.456581161180786 145.90813312186344 H 0.0 **** 0.06
30528 H 149.2256846339851 13.23877136057613 147.67510894052083 H 0.0 **** 0.06
30529 H 150.00061370239357 14.665588593961303 146.94389609916786 H 0.0 **** 0.06
30530 H 150.72777096025672 13.054540798246933 146.737070327316 H 0.0 **** 0.06
30531 C 28.819293741563627 23.92184795902358 124.92862433960255 C 0.0 **** -0.24
30532 H 29.541914571479083 23.65887268093894 124.155886346476 H 0.0 **** 0.06
30533 H 28.942250973914213 23.25536807474367 125.78231101429628 H 0.0 **** 0.06
30534 H 27.80925739420735 23.82208224491734 124.5313093113125 H 0.0 **** 0.06
30535 H 28.985070249013745 24.951550291079684 125.24481589877155 H 0.0 **** 0.06
30536 C 101.15300198248951 93.95899105356864 85.1791006040969 C 0.0 **** -0.24
30537 H 100.29772814553456 93.47181040478495 85.64849869473204 H 0.0 **** 0.06
30538 H 101.85366784219718 93.20227506208755 84.82491683228275 H 0.0 **** 0.06
30539 H 101.64828723665494 94.6012174776393 85.90679186337854 H 0.0 **** 0.06
30540 H 100.81046623747125 94.56061342014027 84.33743758691173 H 0.0 **** 0.06
30541 C 114.01687866325946 77.90591987715761 10.2512214738519 C 0.0 **** -0.24
30542 H 114.8312949830187 77.95001831384344 9.528693123778964 H 0.0 **** 0.06
30543 H 113.6736710992088 78.9163154696481 10.473424465360779 H 0.0 **** 0.06
30544 H 114.36949822363314 77.43180828532296 11.167442252127728 H 0.0 **** 0.06
30545 H 113.1944636424779 77.32548872706897 9.835309207136703 H 0.0 **** 0.06
30546 C 131.5350970031594 161.01936605828845 98.56128794408207 C 0.0 **** -0.24
30547 H 131.99083556536618 161.40901068698773 99.47233641987191 H 0.0 **** 0.06
30548 H 130.79419040981838 160.26381663238075 98.82149425229849 H 0.0 **** 0.06
30549 H 132.30478020203714 160.57395654935686 97.93179690586186 H 0.0 **** 0.06
30550 H 131.05070000314888 161.83380321073665 98.02132260305086 H 0.0 **** 0.06
30551 C 82.11153481994921 23.718233643729945 16.433392561770006 C 0.0 **** -0.24
30552 H 82.9128301879188 23.53122183145652 15.71821693021144 H 0.0 **** 0.06
30553 H 82.46946200538332 23.510004992509124 17.441808558690695 H 0.0 **** 0.06
30554 H 81.26486318201587 23.070793517579006 16.20696541610681 H 0.0 **** 0.06
30555 H 81.80028003191858 24.760359536795363 16.36646787133543 H 0.0 **** 0.06
30556 C 88.44883397806416 101.58386548936781 43.668061858864235 C 0.0 **** -0.24
30557 H 88.40151877994262 101.76499996101475 42.5941100718957 H 0.0 **** 0.06
30558 H 89.44952897989745 101.81580334980134 44.03134985727877 H 0.0 **** 0.06
30559 H 88.22088653546078 100.53762167997692 43.870219448538364 H 0.0 **** 0.06
30560 H 87.7210451994716 102.21842822729278 44.175338439037915 H 0.0 **** 0.06
30561 C 41.289690802213556 45.49530982667565 38.30213023686218 C 0.0 **** -0.24
30562 H 42.35172982981811 45.40889700935398 38.52863794629593 H 0.0 **** 0.06
30563 H 41.11297928389632 45.19334614113829 37.26966675736264 H 0.0 **** 0.06
30564 H 40.972164477414765 46.52963455727132 38.43716454460332 H 0.0 **** 0.06
30565 H 40.72194151021347 44.85060043677956 38.97237151661227 H 0.0 **** 0.06
30566 C 118.61669224240677 64.48389566436994 150.32656023246392 C 0.0 **** -0.24
30567 H 118.22558128747767 64.42190646028429 151.34153825285625 H 0.0 **** 0.06
30568 H 118.4550819527665 63.53416512168785 149.81616736249202 H 0.0 **** 0.06
30569 H 119.68391464046854 64.70133905416118 150.36080290418062 H 0.0 **** 0.06
30570 H 118.10143639900514 65.27883220307272 149.7867350821017 H 0.0 **** 0.06
30571 C 63.066337758101795 85.36060762976433 5.9883997817779 C 0.0 **** -0.24
30572 H 62.2571344449691 84.63735554871653 5.891290266309596 H 0.0 **** 0.06
30573 H 62.68015671660115 86.28262092903628 6.4233716721347776 H 0.0 **** 0.06
30574 H 63.48455635806815 85.571300857859 5.0040033020978 H 0.0 **** 0.06
30575 H 63.84351554097694 84.95113878479992 6.63351977612075 H 0.0 **** 0.06
30576 C 28.739212778343614 79.71045946373403 131.45095514218443 C 0.0 **** -0.24
30577 H 27.6871542899533 79.8915821612276 131.22821898476508 H 0.0 **** 0.06
30578 H 29.31064149999463 79.70049409460083 130.52255879529977 H 0.0 **** 0.06
30579 H 28.843953108957294 78.74888916698106 131.9535174618056 H 0.0 **** 0.06
30580 H 29.1139462186876 80.50270348143513 132.09896757864175 H 0.0 **** 0.06
30581 C 160.60001614539124 135.21418773063255 20.742371087532604 C 0.0 **** -0.24
30582 H 160.76008440612537 135.9276150072172 19.933054972638786 H 0.0 **** 0.06
30583 H 160.5495758695156 134.20565970387167 20.33191298355146 H 0.0 **** 0.06
30584 H 159.66433875866866 135.44731177940716 21.2507802419604 H 0.0 **** 0.06
30585 H 161.42472219604454 135.27837569211482 21.451917900572596 H 0.0 **** 0.06
30586 C 70.878593754914 98.02792599061456 59.353935948566416 C 0.0 **** -0.24
30587 H 71.48962141949812 98.75017018350925 58.81192820432243 H 0.0 **** 0.06
30588 H 70.2087051263124 98.5557174011357 60.0329626909713 H 0.0 **** 0.06
30589 H 71.52457314437686 97.36221044822614 59.92490201728339 H 0.0 **** 0.06
30590 H 70.29097641238059 97.44412544262946 58.64473381624322 H 0.0 **** 0.06
30591 C 119.84363241343024 24.131711302908435 0.9941870115089841 C 0.0 **** -0.24
30592 H 119.56330183143947 24.1962894527098 2.0449244878194577 H 0.0 **** 0.06
30593 H 119.80401659458599 25.12535482581248 0.5466593311811039 H 0.0 **** 0.06
30594 H 119.1501973794405 23.470628383670714 0.4730554307728312 H 0.0 **** 0.06
30595 H 120.8552911438016 23.736147412896642 0.9105111930884959 H 0.0 **** 0.06
30596 C 10.334605582211907 122.23424474999925 8.104566813223954 C 0.0 **** -0.24
30597 H 10.393493392125492 123.24309384425314 8.512724354825252 H 0.0 **** 0.06
30598 H 11.33995625936771 121.8270171894157 7.996503915030814 H 0.0 **** 0.06
30599 H 9.84768172796052 122.2653310298233 7.130120999288835 H 0.0 **** 0.06
30600 H 9.757267457551421 121.60276293937466 8.779622558414331 H 0.0 **** 0.06
30601 C 90.50614734363936 162.41384186087168 31.82251169022439 C 0.0 **** -0.24
30602 H 90.11919453445336 163.38810412728944 32.12091144117994 H 0.0 **** 0.06
30603 H 89.69550671259577 161.80911214500497 31.416313972568958 H 0.0 **** 0.06
30604 H 90.93471920000508 161.91212203488112 32.69071228239142 H 0.0 **** 0.06
30605 H 91.27663230115314 162.5456082085275 31.062934563334665 H 0.0 **** 0.06
30606 C 122.11240937444322 142.63154671117636 91.02070252340866 C 0.0 **** -0.24
30607 H 123.01846206960664 142.72327318755896 91.6197130614924 H 0.0 **** 0.06
30608 H 121.58754961561098 141.71671228262454 91.29435747621514 H 0.0 **** 0.06
30609 H 122.3773481058013 142.598577260286 89.96432507523872 H 0.0 **** 0.06
30610 H 121.46632983554855 143.49036736814264 91.20627785734717 H 0.0 **** 0.06
30611 C 109.92442988641167 40.39185828985323 124.71506569374694 C 0.0 **** -0.24
30612 H 109.92004344470408 39.701428039757275 123.8723601416842 H 0.0 **** 0.06
30613 H 109.08079725295266 41.07664791092165 124.6280483721923 H 0.0 **** 0.06
30614 H 110.85486344023985 40.95984662251965 124.71434577524619 H 0.0 **** 0.06
30615 H 109.84279480597337 39.830137110804046 125.6455144464231 H 0.0 **** 0.06
30616 C 63.402280399360876 21.499923924050115 15.916180855218983 C 0.0 **** -0.24
30617 H 64.20783447277027 21.06322006877746 16.506620723348988 H 0.0 **** 0.06
30618 H 62.5944384892297 21.81092164334438 16.57751033434579 H 0.0 **** 0.06
30619 H 63.02944969005739 20.760320504006643 15.207417208433185 H 0.0 **** 0.06
30620 H 63.780789256965434 22.36500856227193 15.37160811234341 H 0.0 **** 0.06
30621 C 37.39059941300755 30.56130369258279 107.4874201888637 C 0.0 **** -0.24
30622 H 38.23877858020322 30.78624112913213 108.13248223685056 H 0.0 **** 0.06
30623 H 36.59035236571077 30.11675145207405 108.07946143549879 H 0.0 **** 0.06
30624 H 37.700761384824375 29.860982175577632 106.71117653301556 H 0.0 **** 0.06
30625 H 37.03232521582623 31.480394867531707 107.02368764879444 H 0.0 **** 0.06
30626 C 54.93260876131862 31.968288464412815 30.174799098484804 C 0.0 **** -0.24
30627 H 55.918159507440365 31.589131767675568 29.904503366219572 H 0.0 **** 0.06
30628 H 54.47384984972611 32.440870719386936 29.305580963378695 H 0.0 **** 0.06
30629 H 55.032721854245764 32.700391867320846 30.97649346068438 H 0.0 **** 0.06
30630 H 54.3065228935088 31.142350721002934 30.512216026290993 H 0.0 **** 0.06
30631 C 0.664742181172798 71.72481657225606 112.53927996588666 C 0.0 **** -0.24
30632 H 1.1438192602386152 71.14960612738062 111.74599880523087 H 0.0 **** 0.06
30633 H 1.2032800503163728 71.57000973353496 113.47466153881822 H 0.0 **** 0.06
30634 H -0.36712289951348254 71.39492641666516 112.65514093020815 H 0.0 **** 0.06
30635 H 0.6815190979668415 72.78371932185752 112.28053999999494 H 0.0 **** 0.06
30636 C 66.07082842597872 121.56958507757699 24.091966041310002 C 0.0 **** -0.24
30637 H 66.5082960667688 120.58659997385107 24.26650315765562 H 0.0 **** 0.06
30638 H 65.04980596044668 121.58466229423126 24.474480990536904 H 0.0 **** 0.06
30639 H 66.0610543665626 121.77664000712755 23.021505111380975 H 0.0 **** 0.06
30640 H 66.66349201700439 122.3274799090143 24.60318235061743 H 0.0 **** 0.06
30641 C 47.7006071183082 21.73665013508318 118.60514931748469 C 0.0 **** -0.24
30642 H 47.51022457649117 21.371032422887197 117.5953057253345 H 0.0 **** 0.06
30643 H 47.2662380227722 21.04646539545135 119.32796419803219 H 0.0 **** 0.06
30644 H 47.25015973013001 22.72100278877295 118.72578433880892 H 0.0 **** 0.06
30645 H 48.77573054001738 21.80608621592296 118.76872528015633 H 0.0 **** 0.06
30646 C 139.37993852578228 16.9980232324231 97.97530197816081 C 0.0 **** -0.24
30647 H 138.93396990648344 17.736102093293916 97.30874182552887 H 0.0 **** 0.06
30648 H 139.5217651090446 17.438230746392954 98.96264965779005 H 0.0 **** 0.06
30649 H 140.34343516984376 16.68328593625118 97.57552519023142 H 0.0 **** 0.06
30650 H 138.71939721672462 16.133988157436953 98.05369490982244 H 0.0 **** 0.06
30651 C 19.843974805863382 36.84045806690813 79.00811955002386 C 0.0 **** -0.24
30652 H 19.33800771767114 36.11634033006419 79.64642954940192 H 0.0 **** 0.06
30653 H 19.15822389835475 37.18582587013907 78.23431619298341 H 0.0 **** 0.06
30654 H 20.710555104373597 36.37124209159083 78.54324130302446 H 0.0 **** 0.06
30655 H 20.170011385738654 37.688965061390945 79.61111784038927 H 0.0 **** 0.06
30656 C 15.593868054106018 59.113022326645364 21.162196073302766 C 0.0 **** -0.24
30657 H 14.8512804257793 59.384854982861214 20.41200977818687 H 0.0 **** 0.06
30658 H 15.651266289918375 59.89749355535446 21.91722402610921 H 0.0 **** 0.06
30659 H 16.566722724395994 58.99688959148176 20.683903430485458 H 0.0 **** 0.06
30660 H 15.306264890188807 58.17412191863917 21.634471708354027 H 0.0 **** 0.06
30661 C 19.67563081808379 16.02895553776179 111.54657006803026 C 0.0 **** -0.24
30662 H 20.667877353736287 16.248087822441846 111.94071053115428 H 0.0 **** 0.06
30663 H 19.009558395606234 16.867322896897207 111.75570308753126 H 0.0 **** 0.06
30664 H 19.286817926384686 15.12831910727823 112.01986528008428 H 0.0 **** 0.06
30665 H 19.738217234110607 15.875267744703592 110.46904518496217 H 0.0 **** 0.06
30666 C 12.514400637561153 162.58291421245247 162.89611328767748 C 0.0 **** -0.24
30667 H 12.009779198905257 162.78915343068954 161.95226772722086 H 0.0 **** 0.06
30668 H 13.591371287423108 162.54279801805484 162.73109576009372 H 0.0 **** 0.06
30669 H 12.17066477317676 161.62712150172962 163.29080656948085 H 0.0 **** 0.06
30670 H 12.286182544644205 163.37473889175652 163.60983595532568 H 0.0 **** 0.06
30671 C 74.23022360118506 20.01738218992051 66.69162624669966 C 0.0 **** -0.24
30672 H 74.84399077593243 19.660266877775143 65.86494592695728 H 0.0 **** 0.06
30673 H 74.76753110415848 19.87565070305729 67.63002420454485 H 0.0 **** 0.06
30674 H 73.29568096014972 19.45599468567741 66.7194113894919 H 0.0 **** 0.06
30675 H 74.0141491376406 21.076278429650955 66.5521399943968 H 0.0 **** 0.06
30676 C 68.36161383218656 64.22862968273884 127.65718268633725 C 0.0 **** -0.24
30677 H 69.13396197208374 64.36029127859939 128.41573490323412 H 0.0 **** 0.06
30678 H 67.82974483502683 63.29479744124704 127.83998743967473 H 0.0 **** 0.06
30679 H 68.82384980206736 64.19614122067604 126.67140014689048 H 0.0 **** 0.06
30680 H 67.66031959388378 65.06182783356199 127.70380984425361 H 0.0 **** 0.06
30681 C 115.30305334099933 33.32512133002899 93.53350850085086 C 0.0 **** -0.24
30682 H 114.32625706548276 33.35377072252027 94.01679632081911 H 0.0 **** 0.06
30683 H 115.23188218823282 32.7583663822881 92.60446900167715 H 0.0 **** 0.06
30684 H 116.02281391847879 32.84585965882269 94.19805259695308 H 0.0 **** 0.06
30685 H 115.63018688937973 34.34194485725072 93.315459369506 H 0.0 **** 0.06
30686 C 38.689665692513486 48.9824544072857 13.307424624434226 C 0.0 **** -0.24
30687 H 38.218817196194635 49.931978115113196 13.561885379631235 H 0.0 **** 0.06
30688 H 39.37184374471447 49.128158597310346 12.468705774835357 H 0.0 **** 0.06
30689 H 37.92221397550328 48.25968779057877 13.029993294239688 H 0.0 **** 0.06
30690 H 39.24507371559446 48.610751321060434 14.1677301278431 H 0.0 **** 0.06
30691 C 84.77602851631555 147.11537213995513 63.9824007082522 C 0.0 **** -0.24
30692 H 83.87093636597143 146.6339434588183 63.61109961448474 H 0.0 **** 0.06
30693 H 84.6501814257029 147.35865323535688 65.03758111186609 H 0.0 **** 0.06
30694 H 84.95775210545143 148.02970739416082 63.41784032558755 H 0.0 **** 0.06
30695 H 85.62199036718994 146.4391452058785 63.86244024417229 H 0.0 **** 0.06
30696 C 153.63694679802984 118.98253563767307 148.9526139505795 C 0.0 **** -0.24
30697 H 153.625160480825 117.92253539281552 149.20853865392328 H 0.0 **** 0.06
30698 H 152.93703772902478 119.51895413533202 149.59297582771322 H 0.0 **** 0.06
30699 H 153.3460869685639 119.10751049970895 147.91025764978656 H 0.0 **** 0.06
30700 H 154.6420273812152 119.37902734248865 149.09906949860738 H 0.0 **** 0.06
30701 C 9.592499788803451 110.84689308891893 100.80128438093612 C 0.0 **** -0.24
30702 H 9.623081029259936 111.35585389960733 101.76525718685696 H 0.0 **** 0.06
30703 H 8.938309486304888 111.39410753791822 100.12353427201793 H 0.0 **** 0.06
30704 H 9.21137493891382 109.83482591952225 100.93838564386255 H 0.0 **** 0.06
30705 H 10.59780001826391 110.80340510935656 100.38223772396123 H 0.0 **** 0.06
30706 C 1.8275983291046742 57.77772509953192 42.52092783185731 C 0.0 **** -0.24
30707 H 0.7468495696482833 57.693466802905334 42.410182662429705 H 0.0 **** 0.06
30708 H 2.3049069973531573 56.892631912515114 42.09909092813753 H 0.0 **** 0.06
30709 H 2.0791754533936526 57.85674074427327 43.57894737780606 H 0.0 **** 0.06
30710 H 2.1788407134021597 58.665810771554604 41.99623319639046 H 0.0 **** 0.06
30711 C 82.85565936458732 18.56222438693706 121.3032622271127 C 0.0 **** -0.24
30712 H 83.72577354090248 18.06446645592868 121.73160347578448 H 0.0 **** 0.06
30713 H 82.1049790558701 18.712218822927525 122.0809052551341 H 0.0 **** 0.06
30714 H 82.4373428349453 17.944330804256595 120.50913778052103 H 0.0 **** 0.06
30715 H 83.15349188493246 19.52724737038676 120.89493730145361 H 0.0 **** 0.06
30716 C 59.213547849588394 22.62145947077147 130.96539590876608 C 0.0 **** -0.24
30717 H 59.102132463987346 21.75946771844562 131.6222388503985 H 0.0 **** 0.06
30718 H 59.68703362855892 22.3091521137562 130.03428033815044 H 0.0 **** 0.06
30719 H 59.83232531354325 23.37357736818516 131.45467391777925 H 0.0 **** 0.06
30720 H 58.23099156165837 23.043398195622714 130.75054071336717 H 0.0 **** 0.06
30721 C 117.39187008462852 20.644400304387887 73.28660280569535 C 0.0 **** -0.24
30722 H 117.24788512913591 20.544833319473923 74.36315640380697 H 0.0 **** 0.06
30723 H 116.49109646689374 21.06251436510911 72.83761687202501 H 0.0 **** 0.06
30724 H 117.59147207764113 19.663060105480554 72.8556708754832 H 0.0 **** 0.06
30725 H 118.23661222136934 21.305803428167565 73.09294976663634 H 0.0 **** 0.06
30726 C 68.15830731726653 103.2847198726518 88.72858106321421 C 0.0 **** -0.24
30727 H 69.22412378611433 103.07827833006522 88.82103089171663 H 0.0 **** 0.06
30728 H 67.58875598417447 102.44725310864493 89.13425287719929 H 0.0 **** 0.06
30729 H 67.9041621899727 103.42168276631506 87.6777617353209 H 0.0 **** 0.06
30730 H 67.91451281213631 104.19152010319473 89.28169716649973 H 0.0 **** 0.06
30731 C 29.14512394082064 13.361305017934143 118.54777295989655 C 0.0 **** -0.24
30732 H 29.71537444494149 13.478957160259313 119.47030331270466 H 0.0 **** 0.06
30733 H 28.714500630511765 12.36048652011101 118.51239271552379 H 0.0 **** 0.06
30734 H 29.80559866912361 13.50486161524185 117.69218514114382 H 0.0 **** 0.06
30735 H 28.346233342819914 14.102208488613826 118.51882969745466 H 0.0 **** 0.06
30736 C 11.325421007561204 9.864644562022391 30.087395602611224 C 0.0 **** -0.24
30737 H 12.377852058965914 9.887109078184096 30.368516670068175 H 0.0 **** 0.06
30738 H 11.14934078887353 9.036229417698536 29.40020858047575 H 0.0 **** 0.06
30739 H 11.059194112538393 10.803157788626862 29.60179082353332 H 0.0 **** 0.06
30740 H 10.714522261047335 9.731901364841207 30.981156122550345 H 0.0 **** 0.06
30741 C 22.739630515034 27.25465759419103 148.45013221841572 C 0.0 **** -0.24
30742 H 23.258387982173325 28.172607034499208 148.72828937130805 H 0.0 **** 0.06
30743 H 22.685770315565847 27.183640519934244 147.3632952748608 H 0.0 **** 0.06
30744 H 21.731112816142527 27.26827358475333 148.86388881760328 H 0.0 **** 0.06
30745 H 23.2832264609062 26.396344740086533 148.84510101579835 H 0.0 **** 0.06
30746 C 81.81611357854023 89.14943200918246 44.23572637018805 C 0.0 **** -0.24
30747 H 82.83027365400004 88.75026304797701 44.28186089609315 H 0.0 **** 0.06
30748 H 81.14566743156341 88.38924291351285 43.83485312561605 H 0.0 **** 0.06
30749 H 81.80055532114086 90.02620486198248 43.58836158919608 H 0.0 **** 0.06
30750 H 81.49121334470318 89.43026176225804 45.237263351846735 H 0.0 **** 0.06
30751 C 110.75826689830006 91.60989044477998 133.3214811427024 C 0.0 **** -0.24
30752 H 110.49140519603702 91.00463231046174 132.45525757318495 H 0.0 **** 0.06
30753 H 109.85332181961817 92.02152904849291 133.76989831574906 H 0.0 **** 0.06
30754 H 111.41135992077494 92.42436113556528 133.0083280660798 H 0.0 **** 0.06
30755 H 111.27674782314321 90.99001169006408 134.05245630961733 H 0.0 **** 0.06
30756 C 67.8554248850013 91.66202331414507 159.24962390486175 C 0.0 **** -0.24
30757 H 68.66776414369872 91.43335162363803 159.94025193380136 H 0.0 **** 0.06
30758 H 67.7512958366899 90.8513257121823 158.52972923086605 H 0.0 **** 0.06
30759 H 68.07884975806817 92.58998911454165 158.72282919259843 H 0.0 **** 0.06
30760 H 66.92643440251851 91.77533691439243 159.8075177454666 H 0.0 **** 0.06
30761 C 135.50817847949784 137.4063491724874 102.5957176631029 C 0.0 **** -0.24
30762 H 135.32567245373937 138.44459672210763 102.8691721749625 H 0.0 **** 0.06
30763 H 135.16540919042774 137.23391797865236 101.57471736881703 H 0.0 **** 0.06
30764 H 134.9646421519993 136.750817554682 103.27645067111331 H 0.0 **** 0.06
30765 H 136.57496924640543 137.1941224373553 102.6614603995672 H 0.0 **** 0.06
30766 C 65.2765905666342 4.562701110966543 126.49120009024136 C 0.0 **** -0.24
30767 H 65.95207504362757 3.708053155912836 126.523810518343 H 0.0 **** 0.06
30768 H 65.00719940588425 4.851555100551508 127.50719646611401 H 0.0 **** 0.06
30769 H 64.37627719847592 4.292696136292079 125.93844966214021 H 0.0 **** 0.06
30770 H 65.77158322950659 5.397549840794284 125.99411886204871 H 0.0 **** 0.06
30771 C 136.38495161693731 34.25482803460761 1.7528876260479365 C 0.0 **** -0.24
30772 H 137.05439059728639 34.833798088071376 1.1157204408037842 H 0.0 **** 0.06
30773 H 136.96326908185526 33.52091842821909 2.313501069506401 H 0.0 **** 0.06
30774 H 135.6482875121132 33.74172867083314 1.134379819001822 H 0.0 **** 0.06
30775 H 135.87521360321358 34.923489303891245 2.446282253375898 H 0.0 **** 0.06
30776 C 157.7762413091751 89.44753256465094 132.6000472804648 C 0.0 **** -0.24
30777 H 158.3862585148619 90.20176047011466 132.10422564661556 H 0.0 **** 0.06
30778 H 157.12690109897653 88.966629638955 131.8663657304433 H 0.0 **** 0.06
30779 H 157.16641829788477 89.9209521751464 133.36942015395246 H 0.0 **** 0.06
30780 H 158.42293866255 88.70003854975675 133.0586146811701 H 0.0 **** 0.06
30781 C 34.53225590052722 48.309677169189854 136.86373168154074 C 0.0 **** -0.24
30782 H 35.32057720173282 48.78990314392976 136.28316521159738 H 0.0 **** 0.06
30783 H 34.802970578947 47.271192401399304 137.0538179747107 H 0.0 **** 0.06
30784 H 33.597567514682396 48.34570148580735 136.3053253014598 H 0.0 **** 0.06
30785 H 34.40973941793277 48.83293342717113 137.81184161416732 H 0.0 **** 0.06
30786 C 116.60761719794812 58.1964744704226 83.25511601355534 C 0.0 **** -0.24
30787 H 116.3355513363179 57.18800896063567 82.94509777346347 H 0.0 **** 0.06
30788 H 116.45785222077254 58.8845806847509 82.42308587702824 H 0.0 **** 0.06
30789 H 117.65416176739404 58.21420466867016 83.55719699860944 H 0.0 **** 0.06
30790 H 115.98151482158659 58.499322382920866 84.09492899239115 H 0.0 **** 0.06
30791 C 23.031892987828222 27.792693751200254 135.19402303957406 C 0.0 **** -0.24
30792 H 22.372761908725302 27.7356143564145 134.32769629801865 H 0.0 **** 0.06
30793 H 22.44785431619239 28.059348023091424 136.0756897729115 H 0.0 **** 0.06
30794 H 23.794868980986536 28.550052154415226 135.02058524231313 H 0.0 **** 0.06
30795 H 23.50837343872483 26.82559481099547 135.35255018500538 H 0.0 **** 0.06
30796 C 109.19429814368715 113.08219887707776 12.46518367382724 C 0.0 **** -0.24
30797 H 109.14541435673937 111.9943220059094 12.411899880346517 H 0.0 **** 0.06
30798 H 110.23756770646531 113.39794017895076 12.471175895253829 H 0.0 **** 0.06
30799 H 108.70500584125003 113.4236830867348 13.377217897345979 H 0.0 **** 0.06
30800 H 108.68927026796615 113.51043154972604 11.598976136145374 H 0.0 **** 0.06
30801 C 75.68950118546087 73.91718034966743 68.4109030345164 C 0.0 **** -0.24
30802 H 74.75811951528239 73.86611744750331 67.84684131387593 H 0.0 **** 0.06
30803 H 75.88156314751517 72.95350054282761 68.88316917093653 H 0.0 **** 0.06
30804 H 75.60830004426745 74.68872049669733 69.17716869349204 H 0.0 **** 0.06
30805 H 76.50919859259224 74.16111618536377 67.73554734529966 H 0.0 **** 0.06
30806 C 59.635289344583896 135.17058914900923 117.94522269890842 C 0.0 **** -0.24
30807 H 58.69325156797686 135.27323548820968 118.48269955859357 H 0.0 **** 0.06
30808 H 60.30355524208025 135.98534363134803 118.22656363720643 H 0.0 **** 0.06
30809 H 59.44713538905063 135.21019906944792 116.87250139910779 H 0.0 **** 0.06
30810 H 60.09730943139988 134.21717495001678 118.19936366108604 H 0.0 **** 0.06
30811 C 12.332762877732478 158.97955366605515 92.23946621018831 C 0.0 **** -0.24
30812 H 12.462805351524509 159.46026584411652 93.20934229993452 H 0.0 **** 0.06
30813 H 13.218118656368866 159.15498488306156 91.62768118775074 H 0.0 **** 0.06
30814 H 11.458374038963221 159.39713773979173 91.74194183246345 H 0.0 **** 0.06
30815 H 12.194685899153114 157.9082975101271 92.38097172006198 H 0.0 **** 0.06
30816 C 162.68527862942824 73.66984735904592 145.57190459737302 C 0.0 **** -0.24
30817 H 163.1023693053763 74.09039995270618 144.6558845130798 H 0.0 **** 0.06
30818 H 162.64324791508952 72.58414120288006 145.48640951373966 H 0.0 **** 0.06
30819 H 161.6794649381762 74.06214209460344 145.72516758485523 H 0.0 **** 0.06
30820 H 163.3148584347947 73.94493941292956 146.41758093007547 H 0.0 **** 0.06
30821 C 71.39417673463612 93.93563619243672 14.979425481080163 C 0.0 **** -0.24
30822 H 71.83928560998248 94.60603354408195 14.243993400368979 H 0.0 **** 0.06
30823 H 71.07235424807246 94.51114580992457 15.848128458614667 H 0.0 **** 0.06
30824 H 72.13096021868415 93.19398195634466 15.287894192897056 H 0.0 **** 0.06
30825 H 70.53472127669227 93.43185715638438 14.538316852383929 H 0.0 **** 0.06
30826 C 23.00840915094375 56.69588852051791 112.38919515310567 C 0.0 **** -0.24
30827 H 22.9606671014717 57.76511869727648 112.18325249851142 H 0.0 **** 0.06
30828 H 22.369223061236653 56.161974781387755 111.6848549181608 H 0.0 **** 0.06
30829 H 22.665885651898634 56.506263539642276 113.40667728496294 H 0.0 **** 0.06
30830 H 24.037076433263564 56.351022812229104 112.28115746839251 H 0.0 **** 0.06
30831 C 125.17386987481143 115.38808028393632 119.97031341382589 C 0.0 **** -0.24
30832 H 124.11134380274703 115.49314105983836 120.19197637102425 H 0.0 **** 0.06
30833 H 125.30542455921497 115.18254512900427 118.90809709238184 H 0.0 **** 0.06
30834 H 125.58600112563255 114.56465827828546 120.55376512077237 H 0.0 **** 0.06
30835 H 125.69209575633724 116.3113396358089 120.22969915971578 H 0.0 **** 0.06
30836 C 114.78107247599024 82.59874880642816 143.11733781616917 C 0.0 **** -0.24
30837 H 114.39085748409019 83.56629634387565 142.79997381383134 H 0.0 **** 0.06
30838 H 114.26838509683617 82.28203750385887 144.02653664433282 H 0.0 **** 0.06
30839 H 115.84958114955762 82.68479035740438 143.3128266869923 H 0.0 **** 0.06
30840 H 114.61278356245808 81.86445323898245 142.3303831299981 H 0.0 **** 0.06
30841 C 69.32339204320985 8.426406678343277 38.045438427423875 C 0.0 **** -0.24
30842 H 69.98502853734327 9.257035887611039 38.29209230564197 H 0.0 **** 0.06
30843 H 68.77910184404067 8.656037568337133 37.129175527398814 H 0.0 **** 0.06
30844 H 68.61537759201809 8.2729405248067 38.85971204590854 H 0.0 **** 0.06
30845 H 69.91367504627306 7.521922711652586 37.90149204727476 H 0.0 **** 0.06
30846 C 53.90936580365309 44.02420080816721 15.435966133321756 C 0.0 **** -0.24
30847 H 54.995924046249456 43.96684909339105 15.36760067171383 H 0.0 **** 0.06
30848 H 53.579184402253986 43.55601428817752 16.364065010249988 H 0.0 **** 0.06
30849 H 53.464872690540176 43.50401444142575 14.588255196556105 H 0.0 **** 0.06
30850 H 53.59941990361244 45.06877390928162 15.424902325929793 H 0.0 **** 0.06
30851 C 162.10648920512418 69.57241743664073 151.21871995631005 C 0.0 **** -0.24
30852 H 161.33418830354324 69.03091091483287 151.76497343155626 H 0.0 **** 0.06
30853 H 163.01085578565156 69.62486202901209 151.82454542221 H 0.0 **** 0.06
30854 H 161.7569820592832 70.58099557509024 150.9995927594146 H 0.0 **** 0.06
30855 H 162.32307569546282 69.0523596020783 150.2847804280683 H 0.0 **** 0.06
30856 C 109.6954742753071 114.78299298725653 104.08635185336263 C 0.0 **** -0.24
30857 H 110.31752742639222 114.71163119785615 103.19387314661981 H 0.0 **** 0.06
30858 H 109.7133774187352 113.83277300866789 104.61935401315691 H 0.0 **** 0.06
30859 H 108.67105251763664 115.018846720884 103.79678327903181 H 0.0 **** 0.06
30860 H 110.07940377527473 115.57133000392963 104.73444503126197 H 0.0 **** 0.06
30861 C 110.0798652807604 69.87347882984932 24.934143940179354 C 0.0 **** -0.24
30862 H 110.54039159791586 70.67163298342149 24.35117966957671 H 0.0 **** 0.06
30863 H 109.71914757692383 70.27680548621089 25.88095978127612 H 0.0 **** 0.06
30864 H 110.81617839754091 69.09393766673372 25.12697649056838 H 0.0 **** 0.06
30865 H 109.24298791830427 69.45293312865238 24.375592704830694 H 0.0 **** 0.06
30866 C 96.06201358429462 129.33806391335906 31.710878712698467 C 0.0 **** -0.24
30867 H 96.3679816986438 129.67748134240526 30.720844771614324 H 0.0 **** 0.06
30868 H 96.21292879291858 128.2609802866293 31.788088421857786 H 0.0 **** 0.06
30869 H 95.0076435237169 129.56988008039198 31.863656054928022 H 0.0 **** 0.06
30870 H 96.65883640295942 129.84482447596514 32.46899420546406 H 0.0 **** 0.06
30871 C 44.35855294116004 142.82555129296088 2.1511103863130785 C 0.0 **** -0.24
30872 H 43.46436249268038 142.292945017498 2.4757499852987976 H 0.0 **** 0.06
30873 H 44.81737102658508 142.29070203094346 1.3190237845844592 H 0.0 **** 0.06
30874 H 45.06593197980203 142.88604275093968 2.977832538764453 H 0.0 **** 0.06
30875 H 44.086317189969236 143.83072226588845 1.8309794247665963 H 0.0 **** 0.06
30876 C 133.4823430359943 145.13684310568323 116.19054868744172 C 0.0 **** -0.24
30877 H 134.2256623433003 144.47031736274286 116.628220601522 H 0.0 **** 0.06
30878 H 133.20900396432626 144.77396366437483 115.20026080626417 H 0.0 **** 0.06
30879 H 133.8994299356408 146.14061798847092 116.10893765104811 H 0.0 **** 0.06
30880 H 132.59750698481676 145.16123021060284 116.82689159689653 H 0.0 **** 0.06
30881 C 122.81523953006206 126.33807463544255 80.45743646780649 C 0.0 **** -0.24
30882 H 122.62537975345037 126.81189875276473 79.49453833419652 H 0.0 **** 0.06
30883 H 121.86555952052913 126.0952949707461 80.93558164523206 H 0.0 **** 0.06
30884 H 123.37819968783208 127.0208015337424 81.09326480575464 H 0.0 **** 0.06
30885 H 123.39054081024739 125.42488323012228 80.30618918676161 H 0.0 **** 0.06
30886 C 94.33316122712554 51.136922028565934 86.18622649956676 C 0.0 **** -0.24
30887 H 94.26568804950037 50.84813475022365 87.23428855987017 H 0.0 **** 0.06
30888 H 93.63686001146876 51.951366092130144 85.98727592969581 H 0.0 **** 0.06
30889 H 94.08216659571782 50.28294515043001 85.55684104411412 H 0.0 **** 0.06
30890 H 95.34924732043434 51.46512768116463 85.96443832619508 H 0.0 **** 0.06
30891 C 146.43506161700793 53.174401790612265 89.25749757875394 C 0.0 **** -0.24
30892 H 146.72058845861136 52.12270367945257 89.27436040401174 H 0.0 **** 0.06
30893 H 147.21873232655585 53.77121374036952 89.72414688073492 H 0.0 **** 0.06
30894 H 145.50183526810946 53.306198461020756 89.80518369279648 H 0.0 **** 0.06
30895 H 146.298799226093 53.49711073638272 88.22463486006629 H 0.0 **** 0.06
30896 C 151.58611787691865 47.95931042866147 12.224300160984058 C 0.0 **** -0.24
30897 H 151.65744318224424 48.69974002451056 13.021154336027848 H 0.0 **** 0.06
30898 H 150.56350358617442 47.93039840337934 11.846313383780853 H 0.0 **** 0.06
30899 H 151.85717220721463 46.97837786813554 12.614831492641429 H 0.0 **** 0.06
30900 H 152.2654489110773 48.22911642106362 11.415916639151078 H 0.0 **** 0.06
30901 C 99.47519458621608 137.7857673961443 110.96334815798596 C 0.0 **** -0.24
30902 H 100.02461601062225 138.55752355966166 111.50066679758348 H 0.0 **** 0.06
30903 H 100.16617484114323 137.20834105244057 110.34897533335365 H 0.0 **** 0.06
30904 H 98.72444548413137 138.25294993138274 110.32461490101366 H 0.0 **** 0.06
30905 H 98.9840801238106 137.1251276620414 111.67737446242091 H 0.0 **** 0.06
30906 C 11.438511825205339 6.63205591333255 84.43850313435868 C 0.0 **** -0.24
30907 H 11.521924202368282 6.817810501285209 83.36732271628222 H 0.0 **** 0.06
30908 H 11.83087921389842 5.640995104960922 84.66612597634364 H 0.0 **** 0.06
30909 H 10.390334587113685 6.686083029876585 84.73524283647284 H 0.0 **** 0.06
30910 H 12.008697759306003 7.3842199322048145 84.9830131182809 H 0.0 **** 0.06
30911 C 103.80153643265973 130.0533993978094 152.18672478117153 C 0.0 **** -0.24
30912 H 104.53205603147094 129.92022384132795 152.98549150724 H 0.0 **** 0.06
30913 H 104.32124145539345 130.2423016119592 151.24768405637442 H 0.0 **** 0.06
30914 H 103.15583819390466 130.8989497326571 152.42234789213217 H 0.0 **** 0.06
30915 H 103.1976425913665 129.14961349961078 152.09289407440306 H 0.0 **** 0.06
30916 C 112.77013844935118 50.33535861120393 59.432240776959276 C 0.0 **** -0.24
30917 H 113.18383286718054 50.03478058267876 60.39532470946892 H 0.0 **** 0.06
30918 H 112.07722162209816 51.16380671904318 59.57883154886471 H 0.0 **** 0.06
30919 H 112.24211834248322 49.49339334344273 58.985763365586436 H 0.0 **** 0.06
30920 H 113.57883185997846 50.64871591360921 58.77193325238454 H 0.0 **** 0.06
30921 C 66.61266099029856 51.005890845160096 125.84067813901197 C 0.0 **** -0.24
30922 H 67.56243276833118 50.77457526389891 125.35818509699482 H 0.0 **** 0.06
30923 H 66.77339948760198 51.7522887578006 126.61922690245274 H 0.0 **** 0.06
30924 H 66.20114975479703 50.10020650831494 126.2856401887488 H 0.0 **** 0.06
30925 H 65.91514573207093 51.39697878739733 125.10041026660303 H 0.0 **** 0.06
30926 C 20.963610639601086 10.428356717365006 151.24628721007971 C 0.0 **** -0.24
30927 H 20.113423748059574 10.656614524505187 150.60334282312704 H 0.0 **** 0.06
30928 H 21.63900532196439 9.747594160092376 150.72677083735437 H 0.0 **** 0.06
30929 H 20.608897565701596 9.958861845924503 152.1638851943559 H 0.0 **** 0.06
30930 H 21.49211379202788 11.349788596557431 151.49032933750075 H 0.0 **** 0.06
30931 C 133.7473897545957 44.05566326276232 84.35539176810653 C 0.0 **** -0.24
30932 H 134.75614165807207 44.15410070265847 83.95513996668123 H 0.0 **** 0.06
30933 H 133.03101379921873 44.45602423371025 83.63693614214321 H 0.0 **** 0.06
30934 H 133.67231857221253 44.61036048938803 85.29061481966863 H 0.0 **** 0.06
30935 H 133.52945964341504 43.00389974110243 84.53809586283523 H 0.0 **** 0.06
30936 C 12.642496484473092 138.1735082737035 38.186453284996475 C 0.0 **** -0.24
30937 H 11.830710556333926 137.7600883466647 38.784556464019346 H 0.0 **** 0.06
30938 H 13.564507675303787 137.63296114510953 38.40238393682145 H 0.0 **** 0.06
30939 H 12.773525539094742 139.2278043535672 38.432201222682764 H 0.0 **** 0.06
30940 H 12.400925012998997 138.07397983513255 37.12896469262623 H 0.0 **** 0.06
30941 C 101.41170431653731 135.7576040472595 124.95551204116083 C 0.0 **** -0.24
30942 H 101.37322886762976 134.68338128587652 125.13450627487467 H 0.0 **** 0.06
30943 H 102.18951999184938 136.20248135180898 125.57663910822788 H 0.0 **** 0.06
30944 H 100.44786885441931 136.20211721110493 125.20589003535824 H 0.0 **** 0.06
30945 H 101.63503643699309 135.94308474517675 123.90453651692545 H 0.0 **** 0.06
30946 C 47.31846080736767 91.36213028072717 31.635369765121254 C 0.0 **** -0.24
30947 H 47.098834681906 90.68470089355651 32.46138470863161 H 0.0 **** 0.06
30948 H 48.3636414957528 91.66850001121375 31.68501643388413 H 0.0 **** 0.06
30949 H 46.677820075557975 92.24104448230463 31.705840525861163 H 0.0 **** 0.06
30950 H 47.1341888024312 90.8521403891695 30.68940622540316 H 0.0 **** 0.06
30951 C 100.43295946425582 134.31852704392958 88.36377106219251 C 0.0 **** -0.24
30952 H 100.48521846251867 134.53145142533845 87.29677995932481 H 0.0 **** 0.06
30953 H 100.48094267772524 133.24152129282308 88.52262967994677 H 0.0 **** 0.06
30954 H 99.49528808828796 134.70336587495208 88.76558860955598 H 0.0 **** 0.06
30955 H 101.26969739551555 134.7988957791573 88.8705899232087 H 0.0 **** 0.06
30956 C 24.40361672701559 77.53014869716687 44.70890550275624 C 0.0 **** -0.24
30957 H 25.207431135880228 77.83860487701025 44.040324137472226 H 0.0 **** 0.06
30958 H 23.474540642931288 78.01450008200688 44.40659729233846 H 0.0 **** 0.06
30959 H 24.650431014415773 77.82075217822094 45.73004857804102 H 0.0 **** 0.06
30960 H 24.283922575591816 76.44776895888718 44.65743433752772 H 0.0 **** 0.06
30961 C 74.30113324713524 46.75187008273542 37.75733086058847 C 0.0 **** -0.24
30962 H 74.90256218143452 47.64512214912651 37.92497878722435 H 0.0 **** 0.06
30963 H 73.25413583391502 46.97424241662236 37.96281519317665 H 0.0 **** 0.06
30964 H 74.64077879500755 45.95596711405216 38.4212542506059 H 0.0 **** 0.06
30965 H 74.40873260879651 46.43100398995517 36.72121301840218 H 0.0 **** 0.06
30966 C 37.17538478369602 96.48510597700965 47.39624119236407 C 0.0 **** -0.24
30967 H 36.576723328337835 95.90250543115417 46.695171325350344 H 0.0 **** 0.06
30968 H 37.86639668202773 95.82419530966979 47.91976913861836 H 0.0 **** 0.06
30969 H 36.51869413984406 96.9696961744097 48.1183572337693 H 0.0 **** 0.06
30970 H 37.73846776484689 97.24267888262625 46.85089110894668 H 0.0 **** 0.06
30971 C 87.31701887745234 131.80548643051407 158.23656417744374 C 0.0 **** -0.24
30972 H 87.64479973764767 132.82162416107815 158.0137352695433 H 0.0 **** 0.06
30973 H 86.7354105794682 131.80527875495903 159.15824828301618 H 0.0 **** 0.06
30974 H 88.1895100261621 131.16188795222138 158.35579964865002 H 0.0 **** 0.06
30975 H 86.70141464084882 131.434826043788 157.41755311014256 H 0.0 **** 0.06
30976 C 147.42045880643929 105.53622694657744 122.39061946420978 C 0.0 **** -0.24
30977 H 146.72584195781775 105.90770181242209 123.14359137203104 H 0.0 **** 0.06
30978 H 148.3320541665214 105.18865141657955 122.87635086704324 H 0.0 **** 0.06
30979 H 147.6625431918215 106.33875355595765 121.69393944804477 H 0.0 **** 0.06
30980 H 146.95911256079881 104.71040273365253 121.84794469632544 H 0.0 **** 0.06
30981 C 125.67862292226138 120.92839538141891 40.39606152900251 C 0.0 **** -0.24
30982 H 126.08791899827577 121.26083587339929 41.34972755007806 H 0.0 **** 0.06
30983 H 126.05036174847973 119.92895155980477 40.170481954899344 H 0.0 **** 0.06
30984 H 125.98490552250306 121.61658214487949 39.608690091234905 H 0.0 **** 0.06
30985 H 124.58971502871199 120.90716734950149 40.45655845542285 H 0.0 **** 0.06
30986 C 107.74111435381471 152.99717374205233 18.438127300910054 C 0.0 **** -0.24
30987 H 108.04577349927581 151.95086938891563 18.413716984979885 H 0.0 **** 0.06
30988 H 107.63181732211567 153.36650345127686 17.418037792227693 H 0.0 **** 0.06
30989 H 108.49780442635321 153.5829665414058 18.958928368488642 H 0.0 **** 0.06
30990 H 106.78864140387674 153.08596961719508 18.9614651022859 H 0.0 **** 0.06
30991 C 139.7031395057458 65.92430863313683 150.94623062423707 C 0.0 **** -0.24
30992 H 139.23153399485045 66.74597571736808 151.4855833021619 H 0.0 **** 0.06
30993 H 140.10803321080323 66.2931789397233 150.00352936818211 H 0.0 **** 0.06
30994 H 138.96320901680633 65.14917787270974 150.74640811233382 H 0.0 **** 0.06
30995 H 140.5099936440406 65.50940168200955 151.55070766347225 H 0.0 **** 0.06
30996 C 86.18428112960568 97.72142888389587 146.0009652918108 C 0.0 **** -0.24
30997 H 85.27585256353187 97.61527841781268 146.59293779098627 H 0.0 **** 0.06
30998 H 86.43840184578845 98.77739540597926 145.9111754830243 H 0.0 **** 0.06
30999 H 86.02234065523659 97.30056749276937 145.00868114684766 H 0.0 **** 0.06
31000 H 87.00076484271867 97.19108435287137 146.4911804324915 H 0.0 **** 0.06
31001 C 136.12677173937317 95.1317893828672 127.66936004772276 C 0.0 **** -0.24
31002 H 136.67610925005155 94.48538079499338 128.3533937275647 H 0.0 **** 0.06
31003 H 135.14295865953792 94.70187758039893 127.47397170095155 H 0.0 **** 0.06
31004 H 136.67699827005197 95.22013940423447 126.73252927446163 H 0.0 **** 0.06
31005 H 136.0092544176387 96.11890738049084 128.11647143689981 H 0.0 **** 0.06
31006 C 21.385135131323295 6.011876497915864 105.47020558773394 C 0.0 **** -0.24
31007 H 20.931396836551443 5.021586985009236 105.43872417238708 H 0.0 **** 0.06
31008 H 21.605429532871938 6.277932889916713 106.50462826070847 H 0.0 **** 0.06
31009 H 20.695329787053737 6.741195471491011 105.04649902366182 H 0.0 **** 0.06
31010 H 22.30885232376005 6.0060528212362385 104.89145737550425 H 0.0 **** 0.06
31011 C 0.7195645229860475 76.92751746275793 147.0165695328302 C 0.0 **** -0.24
31012 H 0.5371487552820042 77.40267425290133 147.97977944233654 H 0.0 **** 0.06
31013 H -0.16104690248687348 76.3545368014009 146.722277833971 H 0.0 **** 0.06
31014 H 1.5771487390097718 76.26022200948671 147.09646269049148 H 0.0 **** 0.06
31015 H 0.9221263952364325 77.69267505728078 146.26692267570462 H 0.0 **** 0.06
31016 C 47.41884809532196 111.76702969216916 95.39637327030725 C 0.0 **** -0.24
31017 H 48.243244091855416 111.2690404761012 94.88609899654897 H 0.0 **** 0.06
31018 H 47.553104816118335 111.67891612271879 96.47564435003659 H 0.0 **** 0.06
31019 H 46.4771599572894 111.29968273243253 95.10774177901973 H 0.0 **** 0.06
31020 H 47.40253967567497 112.82017249172068 95.11722257457987 H 0.0 **** 0.06
31021 C 162.77929409921984 161.63303980493373 143.218707121589 C 0.0 **** -0.24
31022 H 163.2999975440735 161.7535529867012 144.16910407856074 H 0.0 **** 0.06
31023 H 162.48775012144588 162.6123796056911 142.83756074806087 H 0.0 **** 0.06
31024 H 161.8891387798759 161.02140184356705 143.36837138234054 H 0.0 **** 0.06
31025 H 163.43948013693628 161.1461724033454 142.50234734950897 H 0.0 **** 0.06
31026 C 128.90196165639392 20.455799092977543 118.66854179858467 C 0.0 **** -0.24
31027 H 129.01796864312837 21.509229424133764 118.92524941748587 H 0.0 **** 0.06
31028 H 127.91854707606927 20.111100251725077 118.98767236403074 H 0.0 **** 0.06
31029 H 129.6735682910671 19.872792591668855 119.1715383015549 H 0.0 **** 0.06
31030 H 128.9992148560593 20.333468904357233 117.59031271217617 H 0.0 **** 0.06
31031 C 40.92054027899363 146.69926613325507 134.3534934589274 C 0.0 **** -0.24
31032 H 40.63704338321048 147.37180137966791 133.54379616128836 H 0.0 **** 0.06
31033 H 40.04125895969486 146.15152551477843 134.69430054307776 H 0.0 **** 0.06
31034 H 41.33105436004843 147.27922267708476 135.18015509261875 H 0.0 **** 0.06
31035 H 41.67118408637316 145.99467212341457 133.99513048802993 H 0.0 **** 0.06
31036 C 0.6248170108866447 31.349248669224096 60.170944955533855 C 0.0 **** -0.24
31037 H 0.3208784923457415 32.08268498380761 59.42424662409553 H 0.0 **** 0.06
31038 H 0.11585932427814427 31.55719611797815 61.1129666301635 H 0.0 **** 0.06
31039 H 1.702806083978885 31.408212601724927 60.32003438737064 H 0.0 **** 0.06
31040 H 0.3589543182883155 30.349414178319364 59.82691168132982 H 0.0 **** 0.06
31041 C 121.03985169441398 159.1172106288458 66.45232754391382 C 0.0 **** -0.24
31042 H 120.66674998152234 159.79533721773407 65.6838300853193 H 0.0 **** 0.06
31043 H 121.25829287605666 158.14800436194795 66.00530798940812 H 0.0 **** 0.06
31044 H 120.2852702628785 158.998626988771 67.2287775332287 H 0.0 **** 0.06
31045 H 121.95008057230581 159.53042761517457 66.88907120504983 H 0.0 **** 0.06
31046 C 65.58730660522559 48.28238931853306 13.841990515978296 C 0.0 **** -0.24
31047 H 66.66184170616424 48.43774718790999 13.743536893267702 H 0.0 **** 0.06
31048 H 65.40332090929849 47.38549725728298 14.433554336236966 H 0.0 **** 0.06
31049 H 65.1451502736873 48.163421158060075 12.852852906960948 H 0.0 **** 0.06
31050 H 65.140963850285 49.14356695578661 14.339175668907927 H 0.0 **** 0.06
31051 C 28.300573129492037 34.00060611110652 89.42059918991222 C 0.0 **** -0.24
31052 H 28.21344641120679 32.935599238672125 89.20861307645993 H 0.0 **** 0.06
31053 H 27.309799957844092 34.41603566833999 89.60728794241584 H 0.0 **** 0.06
31054 H 28.75130985464778 34.505822667670145 88.5659896232226 H 0.0 **** 0.06
31055 H 28.92824349819798 34.1457991970712 90.30072973681376 H 0.0 **** 0.06
31056 C 116.14491512656423 11.893008642997778 41.977058890753426 C 0.0 **** -0.24
31057 H 117.11790627167176 11.609576478400093 42.37720044951965 H 0.0 **** 0.06
31058 H 115.93737457679478 12.933005455355897 42.229493862728305 H 0.0 **** 0.06
31059 H 115.37463352722034 11.252797441928266 42.40661880541904 H 0.0 **** 0.06
31060 H 116.1504992200293 11.776328118219958 40.89261462012132 H 0.0 **** 0.06
31061 C 135.48865293680086 8.099578331650008 26.13507563896109 C 0.0 **** -0.24
31062 H 134.92785638663693 7.174884866320127 26.278369533511814 H 0.0 **** 0.06
31063 H 135.55580304798116 8.321891887465483 25.070421056082196 H 0.0 **** 0.06
31064 H 136.49076555852085 7.984597840766128 26.54692586038673 H 0.0 **** 0.06
31065 H 134.9767024395688 8.915917174977011 26.645489652301045 H 0.0 **** 0.06
31066 C 140.5784304671538 57.52427331903927 0.39590645417687753 C 0.0 **** -0.24
31067 H 140.35928870138733 57.786989835444416 1.430118584360585 H 0.0 **** 0.06
31068 H 139.7510504980282 56.94565578058331 -0.01626343934252361 H 0.0 **** 0.06
31069 H 141.4919291067336 56.930785602255966 0.3571066505533089 H 0.0 **** 0.06
31070 H 140.7115924433208 58.434904419893314 -0.18987319981562223 H 0.0 **** 0.06
31071 C 67.33802482545919 18.310357221010506 67.32893715164931 C 0.0 **** -0.24
31072 H 67.23893807318773 19.36375272722114 67.06716898069254 H 0.0 **** 0.06
31073 H 66.83844745076021 18.12425917631488 68.28030030868433 H 0.0 **** 0.06
31074 H 68.39385861177063 18.05667295550535 67.41656777600815 H 0.0 **** 0.06
31075 H 66.88015533370147 17.698844214633482 66.55202711845266 H 0.0 **** 0.06
31076 C 13.924391606684935 151.2060947483142 109.16837532080189 C 0.0 **** -0.24
31077 H 13.928044497552634 151.21530534031353 108.07938146681371 H 0.0 **** 0.06
31078 H 13.015473368226168 150.72085265305856 109.5252473234577 H 0.0 **** 0.06
31079 H 13.959826538638907 152.2306341528113 109.54026813399284 H 0.0 **** 0.06
31080 H 14.794685673906542 150.65795294153196 109.53023257655627 H 0.0 **** 0.06
31081 C 60.171534157493056 107.61510520727052 108.0565530616608 C 0.0 **** -0.24
31082 H 60.19099759505637 108.54827813238495 107.49423082214625 H 0.0 **** 0.06
31083 H 61.05627373417137 107.55415970655119 108.69015654821098 H 0.0 **** 0.06
31084 H 60.16117884123014 106.77320641441167 107.3636020709823 H 0.0 **** 0.06
31085 H 59.27624022449977 107.58423611857361 108.67743769328604 H 0.0 **** 0.06
31086 C 29.98508260305504 80.19056794035636 155.55317498248576 C 0.0 **** -0.24
31087 H 29.650204340183848 81.1767396803924 155.8776495735449 H 0.0 **** 0.06
31088 H 30.04502661820502 80.16761976252793 154.46427875061715 H 0.0 **** 0.06
31089 H 29.27643721625185 79.43630332551835 155.89383820853317 H 0.0 **** 0.06
31090 H 30.967672635323865 79.98373638545588 155.97622978532496 H 0.0 **** 0.06
31091 C 98.61303991458368 118.91368622510078 51.56806668779029 C 0.0 **** -0.24
31092 H 98.45903817844501 119.48645911395761 52.483263156983 H 0.0 **** 0.06
31093 H 97.76190712799072 119.05654610875214 50.90223570992222 H 0.0 **** 0.06
31094 H 98.70985629257646 117.85611173343045 51.81372425824763 H 0.0 **** 0.06
31095 H 99.52270372690964 119.25598569246378 51.07505891160899 H 0.0 **** 0.06
31096 C 67.03826737016436 144.6546844780323 28.007200288569038 C 0.0 **** -0.24
31097 H 66.98945685684922 143.92282413531234 28.81330128680537 H 0.0 **** 0.06
31098 H 67.28218172716338 144.14961661556853 27.072134450339234 H 0.0 **** 0.06
31099 H 67.80822439609933 145.39324520849328 28.23377285526624 H 0.0 **** 0.06
31100 H 66.07455829212834 145.15428752741622 27.910875591745793 H 0.0 **** 0.06
31101 C 56.32781493288854 142.79277058962037 101.04051892680008 C 0.0 **** -0.24
31102 H 57.235026128137335 142.69346081209238 100.44544562194329 H 0.0 **** 0.06
31103 H 55.958798712738016 141.80226570212528 101.30825756580447 H 0.0 **** 0.06
31104 H 55.56850923441846 143.31839329014238 100.46186058561184 H 0.0 **** 0.06
31105 H 56.54857268046989 143.35625136344626 101.94768226553526 H 0.0 **** 0.06
31106 C 93.89412588385119 105.87042091271292 64.06993427624668 C 0.0 **** -0.24
31107 H 93.32912432167251 105.34423165855884 64.83971085177124 H 0.0 **** 0.06
31108 H 93.96728395622063 106.92568033189684 64.33224763738622 H 0.0 **** 0.06
31109 H 93.38314241437052 105.76902654651656 63.11214465855659 H 0.0 **** 0.06
31110 H 94.89348393672861 105.44238430062467 63.996989289194374 H 0.0 **** 0.06
31111 C 86.05663703338266 125.60280395638011 83.99122443732871 C 0.0 **** -0.24
31112 H 85.13503755063735 126.006458074922 84.410516222919 H 0.0 **** 0.06
31113 H 86.06222616292939 125.75773884277925 82.91189231725342 H 0.0 **** 0.06
31114 H 86.11516048236375 124.53572051768876 84.20580029264346 H 0.0 **** 0.06
31115 H 86.91123817229847 126.11047826980217 84.43668318144178 H 0.0 **** 0.06
31116 C 122.41507888097487 40.43764774834243 67.28561496283857 C 0.0 **** -0.24
31117 H 122.13463181774489 39.76807469034887 68.09924832441527 H 0.0 **** 0.06
31118 H 122.06959914547815 40.02201291515536 66.33848861142565 H 0.0 **** 0.06
31119 H 123.49956998078426 40.544565605846984 67.26204629168433 H 0.0 **** 0.06
31120 H 121.95674298742858 41.413240875769816 67.44349806653804 H 0.0 **** 0.06
31121 C 107.40750779671438 156.40722703224174 94.56073296293349 C 0.0 **** -0.24
31122 H 108.26640979938045 156.12357409341547 95.16898637827676 H 0.0 **** 0.06
31123 H 107.56338060146919 157.40816549166584 94.15700934803934 H 0.0 **** 0.06
31124 H 106.50758834464096 156.39908699257933 95.1768211199379 H 0.0 **** 0.06
31125 H 107.29310396422986 155.69774745760594 93.74141291490022 H 0.0 **** 0.06
31126 C 16.15684731608831 18.621967151943124 17.901938613663162 C 0.0 **** -0.24
31127 H 15.143228328224112 18.253499104917125 18.05822580780665 H 0.0 **** 0.06
31128 H 16.213991599187366 19.667747956354987 18.20602237647057 H 0.0 **** 0.06
31129 H 16.416150862643356 18.536006028683886 16.846587382677512 H 0.0 **** 0.06
31130 H 16.853588164397785 18.032293291309315 18.496919080570876 H 0.0 **** 0.06
31131 C 134.86386786223548 9.174718067406026 55.63975591880143 C 0.0 **** -0.24
31132 H 133.95765486273095 9.748292730577816 55.44295402217472 H 0.0 **** 0.06
31133 H 135.0362169518247 9.126160244431858 56.71505764022953 H 0.0 **** 0.06
31134 H 135.7122865878669 9.659434951218785 55.15639262521404 H 0.0 **** 0.06
31135 H 134.74694493526908 8.165922419010933 55.243389629608146 H 0.0 **** 0.06
31136 C 0.12356007076641617 159.31212364637688 42.131851155793186 C 0.0 **** -0.24
31137 H -0.6362911496837285 160.00227995437956 41.76481402091757 H 0.0 **** 0.06
31138 H -0.11572484171404085 158.30031577193236 41.80188530039075 H 0.0 **** 0.06
31139 H 0.1461186776795671 159.34303643511396 43.22159488343178 H 0.0 **** 0.06
31140 H 1.0983990928811238 159.60141332158003 41.74004737478147 H 0.0 **** 0.06
31141 C 109.49657784506573 30.33211872948459 24.54401304941983 C 0.0 **** -0.24
31142 H 108.42989773586683 30.305304947934303 24.769515732632023 H 0.0 **** 0.06
31143 H 109.64221742465378 30.67263449575995 23.518772108432913 H 0.0 **** 0.06
31144 H 109.91598240741081 29.331783999227184 24.657181662129645 H 0.0 **** 0.06
31145 H 109.99642276837568 31.01586970406646 25.229005361210916 H 0.0 **** 0.06
31146 C 131.3390643609356 103.46650107603148 132.5707177852718 C 0.0 **** -0.24
31147 H 130.48045089211385 103.93645055943375 133.05123446155056 H 0.0 **** 0.06
31148 H 132.07214480208793 104.230143499794 132.31054250640278 H 0.0 **** 0.06
31149 H 131.012604117638 102.95235035601235 131.66702337501675 H 0.0 **** 0.06
31150 H 131.78954724365013 102.74771325229074 133.25520744419623 H 0.0 **** 0.06
31151 C 73.87372619515253 32.86575239998993 162.8624148247502 C 0.0 **** -0.24
31152 H 72.87091895679576 32.68869072014601 162.47351681300586 H 0.0 **** 0.06
31153 H 74.27397420097004 33.78283903975881 162.42905295116736 H 0.0 **** 0.06
31154 H 74.51827081343822 32.02721986788504 162.59808303717836 H 0.0 **** 0.06
31155 H 73.83008914042118 32.963809466591215 163.946347675337 H 0.0 **** 0.06
31156 C 60.623647058148606 102.70749989855699 49.413539642539604 C 0.0 **** -0.24
31157 H 59.54692481550205 102.77581036952171 49.56588372874947 H 0.0 **** 0.06
31158 H 61.11888637584171 102.57559288384084 50.376418380871996 H 0.0 **** 0.06
31159 H 60.983376586554144 103.62198866961586 48.94153347578225 H 0.0 **** 0.06
31160 H 60.846061070969995 101.85534376137315 48.77172521108639 H 0.0 **** 0.06
31161 C 8.660000249334018 47.34523215783683 47.8184458223588 C 0.0 **** -0.24
31162 H 8.107212249432337 47.35750206092854 48.757251820292836 H 0.0 **** 0.06
31163 H 7.959164551027783 47.37199402947081 46.983745278752835 H 0.0 **** 0.06
31164 H 9.259583860581778 46.43689373951409 47.761756692059606 H 0.0 **** 0.06
31165 H 9.314257642299694 48.21593057271994 47.77115524071567 H 0.0 **** 0.06
31166 C 22.437567207604516 128.44034573256212 8.191847829107132 C 0.0 **** -0.24
31167 H 22.122304134007926 127.54464204002525 7.657415493712961 H 0.0 **** 0.06
31168 H 23.4391352501151 128.72330843048695 7.866204683394642 H 0.0 **** 0.06
31169 H 22.44639141245441 128.23860116889696 9.263462102782455 H 0.0 **** 0.06
31170 H 21.74279983812236 129.25347436980445 7.980476139281905 H 0.0 **** 0.06
31171 C 27.073617799536294 126.53828929829564 23.167906226277807 C 0.0 **** -0.24
31172 H 27.220213744040763 125.99171627868293 22.236427609972225 H 0.0 **** 0.06
31173 H 27.844358575310793 126.25040728134604 23.882855494273315 H 0.0 **** 0.06
31174 H 26.091523989489502 126.30191108637302 23.576530653606426 H 0.0 **** 0.06
31175 H 27.137940468370942 127.60921255871318 22.97340213140535 H 0.0 **** 0.06
31176 C 101.83360619942596 47.07896117032689 110.23929609036048 C 0.0 **** -0.24
31177 H 101.7682291318296 46.065665529400746 109.84263673092107 H 0.0 **** 0.06
31178 H 100.83623902670016 47.430095177279554 110.50361688370117 H 0.0 **** 0.06
31179 H 102.26499640598766 47.73752992494167 109.4860959101834 H 0.0 **** 0.06
31180 H 102.46594933994339 47.0801804491052 111.12805790988568 H 0.0 **** 0.06
31181 C 99.59347174288058 114.86074683606734 2.633965005510703 C 0.0 **** -0.24
31182 H 99.93162516307666 114.25543750008268 1.793093006122092 H 0.0 **** 0.06
31183 H 100.30987964789361 114.77867285663248 3.4513758156235212 H 0.0 **** 0.06
31184 H 98.61815988762854 114.50680804461132 2.9675964851020638 H 0.0 **** 0.06
31185 H 99.51493710470515 115.90266327668797 2.32176101565409 H 0.0 **** 0.06
31186 C 1.1353853326667718 20.040084773508227 150.346138899415 C 0.0 **** -0.24
31187 H 0.9055930227722229 19.997117145591176 149.28079990251706 H 0.0 **** 0.06
31188 H 0.2382518752281726 20.317350582104496 150.90009296028393 H 0.0 **** 0.06
31189 H 1.9149160016834799 20.781163118619617 150.51993374174583 H 0.0 **** 0.06
31190 H 1.4822974510522045 19.06177456259607 150.6816892347116 H 0.0 **** 0.06
31191 C 98.80084389309062 62.25788548307102 0.693001282065751 C 0.0 **** -0.24
31192 H 99.57291038732504 62.16192874999973 1.4569793678514031 H 0.0 **** 0.06
31193 H 98.45047235722797 63.28930575645215 0.6584491076657457 H 0.0 **** 0.06
31194 H 97.96748910395905 61.59805715571157 0.9356043490139427 H 0.0 **** 0.06
31195 H 99.2142261111816 61.98069442226155 -0.2766585083687687 H 0.0 **** 0.06
31196 C 42.060539522643 9.469307329516134 41.42297867760546 C 0.0 **** -0.24
31197 H 41.71126909171805 9.029144358579707 42.35672841201489 H 0.0 **** 0.06
31198 H 43.147995627033694 9.550285137799655 41.443732355778224 H 0.0 **** 0.06
31199 H 41.62349516515192 10.460224752408891 41.302963165433155 H 0.0 **** 0.06
31200 H 41.75925459540862 8.836203097658881 40.587443323030826 H 0.0 **** 0.06
31201 C 84.01986190171118 136.55532660960188 100.72398506709527 C 0.0 **** -0.24
31202 H 83.21009706530322 136.43036548200638 101.4433476347786 H 0.0 **** 0.06
31203 H 84.88607343143275 136.98885679638465 101.22452281808 H 0.0 **** 0.06
31204 H 83.69324762774079 137.21656867664308 99.92153139671512 H 0.0 **** 0.06
31205 H 84.28821902007928 135.58405895703964 100.30868342676575 H 0.0 **** 0.06
31206 C 54.272025353491685 56.416558689891176 38.6061643046595 C 0.0 **** -0.24
31207 H 53.23248082631689 56.37515220437463 38.280603953000735 H 0.0 **** 0.06
31208 H 54.476067331440674 55.582330820866645 39.27758414193322 H 0.0 **** 0.06
31209 H 54.453396566558354 57.35601412895075 39.1279907194004 H 0.0 **** 0.06
31210 H 54.92741709372174 56.35212146978249 37.73647043528166 H 0.0 **** 0.06
31211 C 33.33817911716989 139.4728445638741 159.7294351560193 C 0.0 **** -0.24
31212 H 33.52251966826793 138.55949584713542 159.16275837406323 H 0.0 **** 0.06
31213 H 33.54653505336975 139.2939266078415 160.78460435856644 H 0.0 **** 0.06
31214 H 32.29707964819184 139.77074256972028 159.6097961373584 H 0.0 **** 0.06
31215 H 33.988509636627555 140.2662070385852 159.36005990521815 H 0.0 **** 0.06
31216 C 62.78228491517143 123.11984887859495 21.21890670317773 C 0.0 **** -0.24
31217 H 62.03267131849907 123.69490757296651 21.762337291585915 H 0.0 **** 0.06
31218 H 62.99449559841469 123.60799053462742 20.266542134213275 H 0.0 **** 0.06
31219 H 62.405758685375815 122.1133800205557 21.035611041950375 H 0.0 **** 0.06
31220 H 63.69613638971293 123.06425039589399 21.809210103133665 H 0.0 **** 0.06
31221 C 96.12797936116074 152.81703312854395 51.808781097817345 C 0.0 **** -0.24
31222 H 95.14150609779902 153.2425340480424 51.626174124532184 H 0.0 **** 0.06
31223 H 96.66896726958541 153.4444472499183 52.51664085610739 H 0.0 **** 0.06
31224 H 96.68182354968252 152.76653158799797 50.870985765765525 H 0.0 **** 0.06
31225 H 96.01883061521274 151.81352782983328 52.22089460511394 H 0.0 **** 0.06
31226 C 60.16014050599165 57.01252715844757 157.43517774271007 C 0.0 **** -0.24
31227 H 60.67946031588917 56.30943164161724 158.0861750369214 H 0.0 **** 0.06
31228 H 60.845777858954875 57.373238913562815 156.6688793116735 H 0.0 **** 0.06
31229 H 59.79876858535383 57.855006219387064 158.02590971210134 H 0.0 **** 0.06
31230 H 59.31568872768341 56.512482366395815 156.9618076661068 H 0.0 **** 0.06
31231 C 159.09500577005218 123.86039015716517 108.34401801331413 C 0.0 **** -0.24
31232 H 158.31044892601597 124.23540679978024 107.68706601993645 H 0.0 **** 0.06
31233 H 159.34499368699923 122.83733810267503 108.06345361187348 H 0.0 **** 0.06
31234 H 158.74430558718902 123.87962072733706 109.37640236774914 H 0.0 **** 0.06
31235 H 159.9798293696288 124.49086852064613 108.2491806462682 H 0.0 **** 0.06
31236 C 57.08341485901586 25.483599179259443 27.434089987402132 C 0.0 **** -0.24
31237 H 56.841568635801465 26.405731471745185 27.96262787386047 H 0.0 **** 0.06
31238 H 56.92796862536552 24.63225779436334 28.09765325169093 H 0.0 **** 0.06
31239 H 58.125750915320026 25.51099164069845 27.115601257270384 H 0.0 **** 0.06
31240 H 56.43903201055349 25.386595526484683 26.56006315386881 H 0.0 **** 0.06
31241 C 139.89349024030133 44.85348575044159 145.97470936508518 C 0.0 **** -0.24
31242 H 140.83062849453347 45.2797140976715 145.61620810423977 H 0.0 **** 0.06
31243 H 140.0876542767132 43.88105349800833 146.42802792748813 H 0.0 **** 0.06
31244 H 139.20534656167064 44.73417469753949 145.13780972450246 H 0.0 **** 0.06
31245 H 139.45244913853918 45.518572631874605 146.71736881033837 H 0.0 **** 0.06
31246 C 134.84478642916602 84.66280507413789 64.71237529271923 C 0.0 **** -0.24
31247 H 135.74552678374704 84.05132809667424 64.67343257997794 H 0.0 **** 0.06
31248 H 133.97058191349768 84.03295343983666 64.54840202855064 H 0.0 **** 0.06
31249 H 134.8920438847864 85.4288768424458 63.93701556950714 H 0.0 **** 0.06
31250 H 134.77125799386425 85.14036103482741 65.68984844027688 H 0.0 **** 0.06
31251 C 73.53556801999389 27.877745841615877 97.38770281314672 C 0.0 **** -0.24
31252 H 73.6449440439707 28.82216011119948 96.85514726634977 H 0.0 **** 0.06
31253 H 74.08470991032993 27.925269676251673 98.32883488085389 H 0.0 **** 0.06
31254 H 73.9333456195757 27.06836915037806 96.77557765746076 H 0.0 **** 0.06
31255 H 72.48038130382537 27.69456056676833 97.59063385231443 H 0.0 **** 0.06
31256 C 93.43764707761594 73.02140846209424 72.94680472435408 C 0.0 **** -0.24
31257 H 93.58145938327893 72.01139619554236 72.56153321953207 H 0.0 **** 0.06
31258 H 93.12815556571834 72.9704984779755 73.99049194768249 H 0.0 **** 0.06
31259 H 92.66915185561008 73.52606960237377 72.36237248300792 H 0.0 **** 0.06
31260 H 94.37389230480949 73.57450404519336 72.8711805943606 H 0.0 **** 0.06
31261 C 104.9503873981532 95.89277090685397 31.91453088733553 C 0.0 **** -0.24
31262 H 105.71299104448875 96.39816330761619 31.321718045763816 H 0.0 **** 0.06
31263 H 104.96429893526997 96.2826453403818 32.93230996461551 H 0.0 **** 0.06
31264 H 105.15366417768357 94.82184509303039 31.931569664260792 H 0.0 **** 0.06
31265 H 103.96994015658817 96.06968091172007 31.47152306059303 H 0.0 **** 0.06
31266 C 83.03941528672885 83.44575734547584 20.76706102395144 C 0.0 **** -0.24
31267 H 83.82235269529068 84.19425559826037 20.644761233895736 H 0.0 **** 0.06
31268 H 82.15683927641572 83.74805663205149 20.204399893812706 H 0.0 **** 0.06
31269 H 82.78467915435783 83.3554509512856 21.823009939896508 H 0.0 **** 0.06
31270 H 83.3954561120504 82.48418265367097 20.396297053927015 H 0.0 **** 0.06
31271 C 28.821790961207995 43.02700513398308 145.00201616987587 C 0.0 **** -0.24
31272 H 29.89088430892277 42.95655827942832 144.80203240835942 H 0.0 **** 0.06
31273 H 28.270910589346897 42.485921522978416 144.23222904400492 H 0.0 **** 0.06
31274 H 28.519369108396866 44.07452249163832 144.99651300950927 H 0.0 **** 0.06
31275 H 28.60573758820547 42.59180751071766 145.97784547419383 H 0.0 **** 0.06
31276 C 102.31352091187225 48.411169943659914 100.1916414233122 C 0.0 **** -0.24
31277 H 103.16131575674552 48.807921282969986 100.75022725753547 H 0.0 **** 0.06
31278 H 101.90556373373886 49.192592896551616 99.5498984926677 H 0.0 **** 0.06
31279 H 101.54570854351957 48.074000450625746 100.88765776110154 H 0.0 **** 0.06
31280 H 102.64272687887365 47.57204762134127 99.57781241520101 H 0.0 **** 0.06
31281 C 96.388447444978 32.51901440000353 123.80559966096496 C 0.0 **** -0.24
31282 H 97.36887497849727 32.23896854473057 123.41939887396711 H 0.0 **** 0.06
31283 H 95.6229497724176 32.25845710187184 123.07462218750825 H 0.0 **** 0.06
31284 H 96.36462755633863 33.59345736175851 123.99085037563646 H 0.0 **** 0.06
31285 H 96.19934010905655 31.98567950067809 124.73667008060013 H 0.0 **** 0.06
31286 C 40.29899309353644 17.569373200548284 19.63531066601029 C 0.0 **** -0.24
31287 H 40.76512951673095 17.335123453251782 20.593089757900444 H 0.0 **** 0.06
31288 H 39.48935389702231 18.283198608244163 19.790044443661145 H 0.0 **** 0.06
31289 H 39.899693838888666 16.656277266955698 19.192910619292178 H 0.0 **** 0.06
31290 H 41.04232543752897 18.002614540762096 18.966822974519452 H 0.0 **** 0.06
31291 C 139.91819650663774 27.449829181671703 147.7419705801489 C 0.0 **** -0.24
31292 H 139.9031847958877 27.656422738573006 148.81258798970748 H 0.0 **** 0.06
31293 H 140.94015633256006 27.236794703251036 147.42780136976634 H 0.0 **** 0.06
31294 H 139.54376402837292 28.317798689521794 147.19982199325432 H 0.0 **** 0.06
31295 H 139.28514320444555 26.587411207018903 147.5296508808338 H 0.0 **** 0.06
31296 C 142.91773028124703 115.42675656874133 136.73400540888758 C 0.0 **** -0.24
31297 H 143.81914033231118 115.88818774300682 136.33099791482186 H 0.0 **** 0.06
31298 H 143.02151637088528 115.30747681366856 137.81277538571345 H 0.0 **** 0.06
31299 H 142.77206551321268 114.45111354845102 136.27224759967493 H 0.0 **** 0.06
31300 H 142.05773512351232 116.06189799436828 136.52025187867457 H 0.0 **** 0.06
31301 C 76.95152254030148 150.76942181020954 11.931984077772 C 0.0 **** -0.24
31302 H 76.06917045953172 150.94622187639965 12.547556508195612 H 0.0 **** 0.06
31303 H 76.87814972832875 151.3551328818421 11.015693280724065 H 0.0 **** 0.06
31304 H 77.0137207792185 149.71054060433596 11.68357154238413 H 0.0 **** 0.06
31305 H 77.8435855114723 151.06615890836804 12.483894048654747 H 0.0 **** 0.06
31306 C 8.129442679423732 157.11742630094398 66.16830128530114 C 0.0 **** -0.24
31307 H 8.280388933076722 156.0430954228921 66.27436377848929 H 0.0 **** 0.06
31308 H 7.1114186055662 157.30992575817052 65.83007681612187 H 0.0 **** 0.06
31309 H 8.836228830678778 157.5134178667892 65.43969587390716 H 0.0 **** 0.06
31310 H 8.29086690190232 157.60369555618257 67.1309483239362 H 0.0 **** 0.06
31311 C 136.1844785370464 7.168951977747128 22.822571845894203 C 0.0 **** -0.24
31312 H 135.11003961369698 7.165032858575486 23.00677419205695 H 0.0 **** 0.06
31313 H 136.37710572560957 6.874529560044692 21.79161499974643 H 0.0 **** 0.06
31314 H 136.67135266427766 6.466337134109118 23.49952815781461 H 0.0 **** 0.06
31315 H 136.57790987215208 8.17084375664762 22.99498852111077 H 0.0 **** 0.06
31316 C 40.39143139778513 7.184420077580967 158.3595233527476 C 0.0 **** -0.24
31317 H 40.80408447269741 6.175572200380287 158.3948545378018 H 0.0 **** 0.06
31318 H 39.33337279074004 7.152239764499257 158.62425216294034 H 0.0 **** 0.06
31319 H 40.50157915432949 7.586533000865302 157.35259459984735 H 0.0 **** 0.06
31320 H 40.9234999412285 7.820416426749091 159.06583597152624 H 0.0 **** 0.06
31321 C 19.40394137702628 99.53943429896319 140.43115994751804 C 0.0 **** -0.24
31322 H 18.96254852074309 100.47863742297378 140.0993291741135 H 0.0 **** 0.06
31323 H 18.68883246336606 99.00281453293533 141.05518265835963 H 0.0 **** 0.06
31324 H 20.307026030039545 99.74512553021424 141.0060634970962 H 0.0 **** 0.06
31325 H 19.657040397697358 98.93007891430949 139.56320961759891 H 0.0 **** 0.06
31326 C 57.93582383566894 5.439601239394619 113.00620244544422 C 0.0 **** -0.24
31327 H 57.95440849085139 4.795987596809141 113.88502376381507 H 0.0 **** 0.06
31328 H 58.36980601629577 6.408215980450223 113.25620811549675 H 0.0 **** 0.06
31329 H 56.90619065244735 5.576333780288394 112.67717122202043 H 0.0 **** 0.06
31330 H 58.51495197305536 4.977361484775997 112.20570452636474 H 0.0 **** 0.06
31331 C 4.619188496008185 32.61511826780554 59.56489517816543 C 0.0 **** -0.24
31332 H 3.9955627614663882 32.28244949312662 60.39513629307629 H 0.0 **** 0.06
31333 H 3.988566732625266 32.83406038606637 58.7027893733182 H 0.0 **** 0.06
31334 H 5.32960518301028 31.82996612602065 59.30634325291605 H 0.0 **** 0.06
31335 H 5.161111565764493 33.51510239843131 59.85637900699315 H 0.0 **** 0.06
31336 C 55.07477185142389 134.5731204291203 3.0245118362352486 C 0.0 **** -0.24
31337 H 55.551935079173134 135.55336204163495 3.0197678366123952 H 0.0 **** 0.06
31338 H 55.221451014863945 134.10292993704337 3.996803960734077 H 0.0 **** 0.06
31339 H 55.519629581221366 133.94947733966143 2.2481151599474885 H 0.0 **** 0.06
31340 H 54.00848286593431 134.68778129651935 2.8319306486874467 H 0.0 **** 0.06
31341 C 94.8546668340557 71.2118232386259 44.27979405550094 C 0.0 **** -0.24
31342 H 94.51453578829882 72.02230054921634 44.9240201347438 H 0.0 **** 0.06
31343 H 94.04353855560817 70.91016803108678 43.616571673264716 H 0.0 **** 0.06
31344 H 95.15835367227794 70.36309121716147 44.89333553183505 H 0.0 **** 0.06
31345 H 95.7034952541481 71.55230643465727 43.68555554589052 H 0.0 **** 0.06
31346 C 94.56347241646208 60.545944861926145 83.98481984958646 C 0.0 **** -0.24
31347 H 94.1679511128156 59.603110043720875 84.36429356179731 H 0.0 **** 0.06
31348 H 95.40143811067652 60.86381773256775 84.60452797778717 H 0.0 **** 0.06
31349 H 93.78174473739246 61.30432328275765 84.01311879568026 H 0.0 **** 0.06
31350 H 94.90109933499704 60.410238898827274 82.95746119532917 H 0.0 **** 0.06
31351 C 77.97672497857445 92.92043793050516 108.51113157456845 C 0.0 **** -0.24
31352 H 78.13078642141488 93.36293601538772 107.52694999876945 H 0.0 **** 0.06
31353 H 78.89352073199672 93.00894105782437 109.09595177519964 H 0.0 **** 0.06
31354 H 77.7166868911695 91.86782776062678 108.39967361333476 H 0.0 **** 0.06
31355 H 77.16804481618419 93.44271396367202 109.02096091128269 H 0.0 **** 0.06
31356 C 108.16952200157633 3.552457056425709 47.5988465391149 C 0.0 **** -0.24
31357 H 108.03946456174049 2.482933377634623 47.43528003249588 H 0.0 **** 0.06
31358 H 109.11670323385388 3.7290484137679982 48.10924646471756 H 0.0 **** 0.06
31359 H 107.35063255557344 3.927066256157275 48.21276906670107 H 0.0 **** 0.06
31360 H 108.17142524611225 4.068592490131493 46.63918387703154 H 0.0 **** 0.06
31361 C 125.31510749081534 155.08567480690877 8.38881460919174 C 0.0 **** -0.24
31362 H 125.51751569270888 154.72743758254728 9.398380297784016 H 0.0 **** 0.06
31363 H 124.31596142471957 155.52191873639427 8.352547774922535 H 0.0 **** 0.06
31364 H 125.37406973886104 154.2523133575961 7.688373306432936 H 0.0 **** 0.06
31365 H 126.05126655498398 155.8416511740137 8.117371446372495 H 0.0 **** 0.06
31366 C 22.884351839632927 133.1447798261991 86.0008056136378 C 0.0 **** -0.24
31367 H 23.27425258076405 133.1515554339927 84.98256822360477 H 0.0 **** 0.06
31368 H 23.70301413319715 133.30353932184227 86.7032829095187 H 0.0 **** 0.06
31369 H 22.413118073129667 132.1825913046311 86.20275080101756 H 0.0 **** 0.06
31370 H 22.148744720758586 133.94077247575862 86.11335650398549 H 0.0 **** 0.06
31371 C 79.10454930448884 125.69728190849156 9.610626979328664 C 0.0 **** -0.24
31372 H 78.1111009101694 126.07813292842764 9.851144539327322 H 0.0 **** 0.06
31373 H 79.85936483028016 126.33861842763133 10.066621358614007 H 0.0 **** 0.06
31374 H 79.23877629636787 125.69117557393912 8.528424264086276 H 0.0 **** 0.06
31375 H 79.20649002898357 124.68330403287712 9.995611098130162 H 0.0 **** 0.06
31376 C 5.918892078456082 130.49999336592975 28.14690923592036 C 0.0 **** -0.24
31377 H 5.303688485615055 129.8937896400006 28.812045647388572 H 0.0 **** 0.06
31378 H 5.660201056914104 131.55198850333505 28.270501573585534 H 0.0 **** 0.06
31379 H 5.7404766780412615 130.20034864632208 27.114550373346276 H 0.0 **** 0.06
31380 H 6.970808619303028 130.3533483070015 28.391311902727296 H 0.0 **** 0.06
31381 C 85.5230594731936 88.85051878703595 76.1987281971873 C 0.0 **** -0.24
31382 H 86.54679411432545 89.11614680657497 76.46106762404874 H 0.0 **** 0.06
31383 H 85.26312415019683 89.30437267886872 75.24248809978178 H 0.0 **** 0.06
31384 H 84.84422097787777 89.21415732263797 76.97011796147596 H 0.0 **** 0.06
31385 H 85.43727293728972 87.76645680526325 76.1218961958902 H 0.0 **** 0.06
31386 C 81.34460167325558 4.084956011115537 95.14486410571992 C 0.0 **** -0.24
31387 H 80.54464791919325 4.2023448458211305 94.41361946916263 H 0.0 **** 0.06
31388 H 81.25557228477241 3.111076856349598 95.62669709412289 H 0.0 **** 0.06
31389 H 81.26606424758364 4.870464240325646 95.89648139600318 H 0.0 **** 0.06
31390 H 82.3089504603631 4.156905990757878 94.64260077601365 H 0.0 **** 0.06
31391 C 45.806105656538136 16.142857359865843 31.855148775189974 C 0.0 **** -0.24
31392 H 45.70527485707545 17.023994384484467 31.22134316227249 H 0.0 **** 0.06
31393 H 46.004442744386765 15.269163124999693 31.23373131350604 H 0.0 **** 0.06
31394 H 44.882209523628276 15.98951529099918 32.41331005806882 H 0.0 **** 0.06
31395 H 46.63183648515938 16.288652706467303 32.55146563318877 H 0.0 **** 0.06
31396 C 21.337629134489532 69.36778588195534 24.949288162349553 C 0.0 **** -0.24
31397 H 21.885444509489474 70.1362847987105 25.495896456408907 H 0.0 **** 0.06
31398 H 21.73152548239824 68.38601559819296 25.21187839307258 H 0.0 **** 0.06
31399 H 21.454373030476262 69.53172358864049 23.877904871938462 H 0.0 **** 0.06
31400 H 20.281646524760475 69.41877356218015 25.211087291563786 H 0.0 **** 0.06
31401 C 75.46624578846473 18.82654253028322 103.90869220556226 C 0.0 **** -0.24
31402 H 75.43161635463544 18.018848758435396 103.17788893843374 H 0.0 **** 0.06
31403 H 75.56149243861911 18.40673094659951 104.90994499944429 H 0.0 **** 0.06
31404 H 74.54879879891878 19.413256793429824 103.84511306181116 H 0.0 **** 0.06
31405 H 76.32191815594058 19.468438555528543 103.69996717531689 H 0.0 **** 0.06
31406 C 78.28593044561711 107.87133461690874 81.6341103599625 C 0.0 **** -0.24
31407 H 78.46638920581228 107.08727838990836 80.89843900851221 H 0.0 **** 0.06
31408 H 79.23249062043224 108.33997915268486 81.90472080420145 H 0.0 **** 0.06
31409 H 77.82797535668219 107.43669122267872 82.5226766854917 H 0.0 **** 0.06
31410 H 77.61759882266539 108.62019501627671 81.21079634387198 H 0.0 **** 0.06
31411 C 72.43232083968998 76.62862615943817 83.66473395485451 C 0.0 **** -0.24
31412 H 72.14588085996161 76.20395637888953 82.70181878904299 H 0.0 **** 0.06
31413 H 72.82118670369447 75.83867159587294 84.3079765300123 H 0.0 **** 0.06
31414 H 71.56121446549429 77.08473510923085 84.13396112210012 H 0.0 **** 0.06
31415 H 73.20213728253498 77.38518292604635 83.51275580230697 H 0.0 **** 0.06
31416 C 78.04068349456287 112.33282022721622 158.20048444767465 C 0.0 **** -0.24
31417 H 78.7634286354388 112.9853160722823 157.71069420020888 H 0.0 **** 0.06
31418 H 78.56892925727763 111.60001125245654 158.8103805652967 H 0.0 **** 0.06
31419 H 77.44728896218335 111.8169307334517 157.44535543456396 H 0.0 **** 0.06
31420 H 77.38456618652556 112.92879318659917 158.83463597312104 H 0.0 **** 0.06
31421 C 30.614669174197104 23.635917976453356 65.08724020715226 C 0.0 **** -0.24
31422 H 31.41329564398893 23.091821714139883 64.58199679493907 H 0.0 **** 0.06
31423 H 31.03081181357544 24.50808080646192 65.59142485172245 H 0.0 **** 0.06
31424 H 30.13931145357327 22.98364275417964 65.82048911258983 H 0.0 **** 0.06
31425 H 29.875279538142138 23.958101290201796 64.35410261368543 H 0.0 **** 0.06
31426 C 152.9784482467188 78.96689040956602 25.19294353927549 C 0.0 **** -0.24
31427 H 151.89538891452742 79.09127281920212 25.21908521704586 H 0.0 **** 0.06
31428 H 153.28093824950753 78.63210474572162 24.200051675550384 H 0.0 **** 0.06
31429 H 153.27648553721667 78.22520024350234 25.933574559223985 H 0.0 **** 0.06
31430 H 153.45885125592253 79.91943111429839 25.417936938776364 H 0.0 **** 0.06
31431 C 76.33629380067613 156.64958347918883 162.6776654911849 C 0.0 **** -0.24
31432 H 77.11660110224625 157.31257141434452 162.30394852782737 H 0.0 **** 0.06
31433 H 75.46972577400233 157.24019159331442 162.97446131131625 H 0.0 **** 0.06
31434 H 76.71246686922206 156.09672505184426 163.5397404908307 H 0.0 **** 0.06
31435 H 76.04891584044006 155.94834293971832 161.8945911317474 H 0.0 **** 0.06
31436 C 58.629270979215036 103.1387381360619 10.750685631324131 C 0.0 **** -0.24
31437 H 58.13602279532263 102.83708900588152 11.675954758049528 H 0.0 **** 0.06
31438 H 58.9614900921206 102.25193494973448 10.211075196266023 H 0.0 **** 0.06
31439 H 59.489078354969905 103.76611215184934 10.986246630803407 H 0.0 **** 0.06
31440 H 57.928291103807936 103.70047365792072 10.13317022425349 H 0.0 **** 0.06
31441 C 83.39954079994891 41.628602361495325 45.44504036120408 C 0.0 **** -0.24
31442 H 83.42299758722456 41.807160949684274 44.369683914516344 H 0.0 **** 0.06
31443 H 84.41307678209381 41.44275499358493 45.80372196849467 H 0.0 **** 0.06
31444 H 82.77364910118632 40.76171642539914 45.65603609699863 H 0.0 **** 0.06
31445 H 82.99072509121211 42.50460626791569 45.94916013334445 H 0.0 **** 0.06
31446 C 129.20710623531352 123.38451668373654 129.93775019150422 C 0.0 **** -0.24
31447 H 129.67510945109382 122.55551850005395 130.46793585241437 H 0.0 **** 0.06
31448 H 129.97774726539205 124.00054352797648 129.4733934180473 H 0.0 **** 0.06
31449 H 128.6332923235479 123.98843984129797 130.64008148424313 H 0.0 **** 0.06
31450 H 128.54146199410684 122.99316277843849 129.16754647711596 H 0.0 **** 0.06
31451 C 104.78718200398481 26.778066589176632 119.00899817843819 C 0.0 **** -0.24
31452 H 104.59288060699615 27.84567521340807 119.11569716325616 H 0.0 **** 0.06
31453 H 105.6147565845834 26.627659914444415 118.31528424537507 H 0.0 **** 0.06
31454 H 103.89468662141945 26.283517509025756 118.6256470928698 H 0.0 **** 0.06
31455 H 105.04657480807447 26.358319661672247 119.98059980833784 H 0.0 **** 0.06
31456 C 154.54946179351626 8.171066250524063 144.49959669685109 C 0.0 **** -0.24
31457 H 153.59170031313482 7.65002170256102 144.47257032860944 H 0.0 **** 0.06
31458 H 155.2924105052669 7.540298294008011 144.98669506738815 H 0.0 **** 0.06
31459 H 154.44065297739604 9.101561759388261 145.05617246471832 H 0.0 **** 0.06
31460 H 154.87070224245252 8.392652467618007 143.48114393814356 H 0.0 **** 0.06
31461 C 124.49550380848697 62.030978431274946 145.69830408772026 C 0.0 **** -0.24
31462 H 125.13253571080054 61.47569111244513 146.38772721309618 H 0.0 **** 0.06
31463 H 124.77335165714962 61.78856509471987 144.6725930165646 H 0.0 **** 0.06
31464 H 124.62326579159188 63.09998972036681 145.8669059211997 H 0.0 **** 0.06
31465 H 123.45417297275284 61.75793512435229 145.86712138087768 H 0.0 **** 0.06
31466 C 114.83113295932617 48.5695874686908 0.24050157076334244 C 0.0 **** -0.24
31467 H 114.60153307764682 47.51030797342867 0.3591806525224115 H 0.0 **** 0.06
31468 H 115.9122484211689 48.70901605234059 0.24144425373600598 H 0.0 **** 0.06
31469 H 114.39088484742638 49.13104059895278 1.0641591567844273 H 0.0 **** 0.06
31470 H 114.41951363716362 48.926203733748935 -0.7040825977681493 H 0.0 **** 0.06
31471 C 96.91226344059672 111.75995785480728 96.54736149166968 C 0.0 **** -0.24
31472 H 97.43250923844496 112.35507874002474 97.29816260416476 H 0.0 **** 0.06
31473 H 97.47110818454982 111.78773723347388 95.6114043643696 H 0.0 **** 0.06
31474 H 95.9135339100014 112.16711966846333 96.38768852188622 H 0.0 **** 0.06
31475 H 96.83318801717277 110.72893403679245 96.8937469049311 H 0.0 **** 0.06
31476 C 40.023533170973224 152.87663177694026 93.62701940692494 C 0.0 **** -0.24
31477 H 39.58786163762926 151.89702123134484 93.43000074093305 H 0.0 **** 0.06
31478 H 39.36808484288838 153.65179699291267 93.23073766891139 H 0.0 **** 0.06
31479 H 40.999407377497505 152.94312087613446 93.14631827288491 H 0.0 **** 0.06
31480 H 40.13797197981262 153.0113945702303 94.70279615796835 H 0.0 **** 0.06
31481 C 29.045323415333144 83.00499541439795 1.1330809063888978 C 0.0 **** -0.24
31482 H 29.967162265112307 83.5853459250159 1.083610671900729 H 0.0 **** 0.06
31483 H 29.207624735953857 82.11850737408332 1.7475474571485279 H 0.0 **** 0.06
31484 H 28.75240434404276 82.70241636409887 0.12827189043443354 H 0.0 **** 0.06
31485 H 28.255591395692477 83.61316632964996 1.5744700080583058 H 0.0 **** 0.06
31486 C 28.361267007315746 84.59795052225478 63.66569949280449 C 0.0 **** -0.24
31487 H 29.166901634585102 85.04595299949719 63.08329884974262 H 0.0 **** 0.06
31488 H 27.695603159195244 85.3824312011232 64.02753868671186 H 0.0 **** 0.06
31489 H 28.783297774281984 84.05959043406985 64.51379929607742 H 0.0 **** 0.06
31490 H 27.800892702144516 83.90561047573486 63.03774508261148 H 0.0 **** 0.06
31491 C 121.68655588081378 119.70019799948821 143.21821047474117 C 0.0 **** -0.24
31492 H 120.65930950417669 119.77328385282388 143.57393532051168 H 0.0 **** 0.06
31493 H 122.31472073321333 119.28209125788757 144.00523115298427 H 0.0 **** 0.06
31494 H 122.04990970481347 120.69304680519 142.95174823750978 H 0.0 **** 0.06
31495 H 121.72228358105153 119.0523700820514 142.34192718795896 H 0.0 **** 0.06
31496 C 52.031879468166835 36.12619689999396 39.61009206631962 C 0.0 **** -0.24
31497 H 52.628529361269244 37.00492123358063 39.85528038463906 H 0.0 **** 0.06
31498 H 51.54516702724075 35.75544366705127 40.5124633378433 H 0.0 **** 0.06
31499 H 52.67913567757455 35.35114301159716 39.2013223459185 H 0.0 **** 0.06
31500 H 51.275703493975016 36.394799460972166 38.8725885687584 H 0.0 **** 0.06
31501 C 33.418596768608836 29.223281037116976 23.167471692827178 C 0.0 **** -0.24
31502 H 33.727487577559145 29.387767161112286 22.134915807984157 H 0.0 **** 0.06
31503 H 32.38380289514032 28.880391006808402 23.186470152989386 H 0.0 **** 0.06
31504 H 33.50287858981085 30.156327912862963 23.72403340389309 H 0.0 **** 0.06
31505 H 34.06018658285632 28.468661375372704 23.622018192273288 H 0.0 **** 0.06
31506 C 34.290173795118704 119.38340917579552 38.901852879980055 C 0.0 **** -0.24
31507 H 35.3541161676566 119.54819761604864 39.069394595748236 H 0.0 **** 0.06
31508 H 33.71416359528129 120.05465914095092 39.539488054073686 H 0.0 **** 0.06
31509 H 34.04055061526678 118.35003517292182 39.14231138139736 H 0.0 **** 0.06
31510 H 34.05298580563404 119.58158758487932 37.856399368862526 H 0.0 **** 0.06
31511 C 51.864187283570004 1.9477250761360452 42.870088596200134 C 0.0 **** -0.24
31512 H 52.75216762096218 2.230639581094316 43.435240040044164 H 0.0 **** 0.06
31513 H 51.63740423483125 2.7235270504198255 42.13806767221659 H 0.0 **** 0.06
31514 H 51.02088860145014 1.8345429463220526 43.55197056471974 H 0.0 **** 0.06
31515 H 52.045852651204086 1.003800694131698 42.35617974140426 H 0.0 **** 0.06
31516 C 74.5564276307939 144.31851697725102 65.90401193134086 C 0.0 **** -0.24
31517 H 74.33416417151193 145.3656592590856 65.69875148632256 H 0.0 **** 0.06
31518 H 74.63953846371294 144.1694913269363 66.9806361949267 H 0.0 **** 0.06
31519 H 75.49617724799305 144.04540221747038 65.42541000803293 H 0.0 **** 0.06
31520 H 73.75357617226865 143.69433793199704 65.51174045742556 H 0.0 **** 0.06
31521 C 108.10250268518394 3.1923147294564416 95.8631768593778 C 0.0 **** -0.24
31522 H 107.9192552397108 3.522378594415514 94.8405630126729 H 0.0 **** 0.06
31523 H 108.62800717680003 2.2371205802895986 95.8474910835889 H 0.0 **** 0.06
31524 H 107.15222082828654 3.07642845717033 96.38367911556573 H 0.0 **** 0.06
31525 H 108.71269144593057 3.934269564661818 96.37912025019516 H 0.0 **** 0.06
31526 C 27.035238941844852 88.99071823841729 90.2357174161254 C 0.0 **** -0.24
31527 H 27.64981343404679 89.61377017716002 90.8853552580959 H 0.0 **** 0.06
31528 H 27.32544760302497 89.15255258885327 89.1974759029941 H 0.0 **** 0.06
31529 H 25.985951397242587 89.2567464971734 90.364723151351 H 0.0 **** 0.06
31530 H 27.179431391786466 87.94200949434429 90.4955084138676 H 0.0 **** 0.06
31531 C 17.34551281102179 73.30208519169213 57.25055213234759 C 0.0 **** -0.24
31532 H 17.959167501880557 73.67069224332243 58.07302683840135 H 0.0 **** 0.06
31533 H 16.672419908613165 74.0925012314708 56.918062594915455 H 0.0 **** 0.06
31534 H 16.762952578082775 72.44557749176181 57.588315303207025 H 0.0 **** 0.06
31535 H 17.989859980160986 73.00151802450748 56.42410311830645 H 0.0 **** 0.06
31536 C 142.2830222899936 68.99504475427973 49.98633938935848 C 0.0 **** -0.24
31537 H 143.08560623154403 69.72789319024572 50.06248405094266 H 0.0 **** 0.06
31538 H 142.52574773795578 68.12620277060596 50.59952767326577 H 0.0 **** 0.06
31539 H 142.17092722773612 68.68624357536812 48.947175602821105 H 0.0 **** 0.06
31540 H 141.35206740410428 69.43827523785811 50.33683978985941 H 0.0 **** 0.06
31541 C 92.57939885293412 156.5250632018035 37.813317257520055 C 0.0 **** -0.24
31542 H 93.59198779808835 156.8581867302477 37.58666733793001 H 0.0 **** 0.06
31543 H 92.61395800050852 155.76610500016147 38.59607202381292 H 0.0 **** 0.06
31544 H 92.12647121456828 156.1018777264894 36.91675132992853 H 0.0 **** 0.06
31545 H 91.98656723478237 157.37355284136135 38.15544862135749 H 0.0 **** 0.06
31546 C 54.20307959159082 39.54194321141752 80.11588590338968 C 0.0 **** -0.24
31547 H 54.511998871663295 40.58685409985564 80.12941180202196 H 0.0 **** 0.06
31548 H 53.29323578254922 39.424722485725724 80.70598119300368 H 0.0 **** 0.06
31549 H 54.99410339451143 38.92350651706374 80.53987086713175 H 0.0 **** 0.06
31550 H 54.01195233990654 39.23323471153115 79.0874758039725 H 0.0 **** 0.06
31551 C 33.39943747741013 70.29831433150089 161.88257322549688 C 0.0 **** -0.24
31552 H 32.454733134847054 70.25278132362486 162.42574663312104 H 0.0 **** 0.06
31553 H 33.20183207601073 70.46992356655262 160.82459296898432 H 0.0 **** 0.06
31554 H 33.933238228497274 69.35595775761028 162.0046293391981 H 0.0 **** 0.06
31555 H 34.00632876700867 71.11342377958479 162.276742485828 H 0.0 **** 0.06
31556 C 113.62917221559383 125.89000593696608 151.42253982972187 C 0.0 **** -0.24
31557 H 113.82118457562757 125.78034538597257 152.49020583286355 H 0.0 **** 0.06
31558 H 114.57525212742544 125.90306290976221 150.88202512092982 H 0.0 **** 0.06
31559 H 113.09473880483714 126.82405687965056 151.24465596183262 H 0.0 **** 0.06
31560 H 113.02299019877515 125.0525711341717 151.07584804295053 H 0.0 **** 0.06
31561 C 106.479657914981 65.11853954862954 3.807864984124535 C 0.0 **** -0.24
31562 H 107.17453364087481 65.38872803182645 4.603420001033157 H 0.0 **** 0.06
31563 H 106.09462929763356 64.11418401200882 3.9874055346450916 H 0.0 **** 0.06
31564 H 106.99856724616592 65.1438413687585 2.8494351266667763 H 0.0 **** 0.06
31565 H 105.65229183079884 65.82787158869354 3.792559098997458 H 0.0 **** 0.06
31566 C 29.4694009359377 152.6224947771605 18.668181405921736 C 0.0 **** -0.24
31567 H 29.002149894975645 151.68815129353828 18.35753117355315 H 0.0 **** 0.06
31568 H 29.638598722790306 152.6028721891503 19.745439017156414 H 0.0 **** 0.06
31569 H 28.813728638441432 153.4571474782905 18.41866670890473 H 0.0 **** 0.06
31570 H 30.421848207651095 152.74255360151417 18.152765163744405 H 0.0 **** 0.06
31571 C 41.4037048292093 140.91955011860352 7.758647752229486 C 0.0 **** -0.24
31572 H 41.288277144662885 141.98761537385067 7.943433898965381 H 0.0 **** 0.06
31573 H 40.86680547762852 140.35827547634682 8.523656073090173 H 0.0 **** 0.06
31574 H 42.460834388100466 140.65805161744174 7.788788200212977 H 0.0 **** 0.06
31575 H 40.99693709070691 140.67591970778972 6.776620706438692 H 0.0 **** 0.06
31576 C 153.05143861111344 143.79371813788921 95.08862771832301 C 0.0 **** -0.24
31577 H 152.80430529317573 142.8153654133657 94.67555998927655 H 0.0 **** 0.06
31578 H 153.78029598813006 144.2861663429289 94.44501405979229 H 0.0 **** 0.06
31579 H 153.47270181431162 143.67045718384907 96.0865184523214 H 0.0 **** 0.06
31580 H 152.14908070318418 144.40163542663117 95.14763286715804 H 0.0 **** 0.06
31581 C 126.17647049076919 7.844931959733579 19.74005303013695 C 0.0 **** -0.24
31582 H 126.74065173692469 7.739112374508693 18.81282132898278 H 0.0 **** 0.06
31583 H 126.8143233320526 7.580222544576664 20.58425299432313 H 0.0 **** 0.06
31584 H 125.31188072845984 7.181925044668553 19.716553761602732 H 0.0 **** 0.06
31585 H 125.84132412490186 8.875544942035702 19.846164193311097 H 0.0 **** 0.06
31586 C 24.00823380347967 47.323792899346415 95.64317239693696 C 0.0 **** -0.24
31587 H 23.38913038378311 48.220795440317474 95.67169031481683 H 0.0 **** 0.06
31588 H 23.862387014576484 46.75212080617901 96.55968785633985 H 0.0 **** 0.06
31589 H 25.056885309432175 47.60969217191051 95.55548824250548 H 0.0 **** 0.06
31590 H 23.725002656238132 46.71439286172229 94.7846267749751 H 0.0 **** 0.06
31591 C 134.23636822335163 5.124710027317178 20.704158704838363 C 0.0 **** -0.24
31592 H 135.29431566426058 5.292196301261328 20.505125088307693 H 0.0 **** 0.06
31593 H 133.99931983843695 4.072559767679053 20.548554303169595 H 0.0 **** 0.06
31594 H 133.63840259828277 5.7358324012905655 20.027912877933744 H 0.0 **** 0.06
31595 H 134.0126890155934 5.399173436496028 21.73581337204996 H 0.0 **** 0.06
31596 C 84.83023027102169 156.05451954473367 117.39183086682922 C 0.0 **** -0.24
31597 H 84.46613119056818 155.64898692922395 118.33547698423189 H 0.0 **** 0.06
31598 H 85.88340630154917 156.31772756366743 117.49277966522544 H 0.0 **** 0.06
31599 H 84.25577391378536 156.94341546529697 117.13196786687345 H 0.0 **** 0.06
31600 H 84.71680074508458 155.30610455046207 116.60667187907026 H 0.0 **** 0.06
31601 C 78.73405002509395 121.02296413729294 84.8184994820927 C 0.0 **** -0.24
31602 H 79.59275812430563 120.36280360787435 84.93351809324548 H 0.0 **** 0.06
31603 H 78.05283710117605 120.88427049609083 85.65845061358311 H 0.0 **** 0.06
31604 H 78.21679576865986 120.786815356984 83.88787083302302 H 0.0 **** 0.06
31605 H 79.07298346865146 122.0583674036699 84.79308222380843 H 0.0 **** 0.06
31606 C 113.18854970722128 51.51566558563 35.870877070414764 C 0.0 **** -0.24
31607 H 113.81494431237076 51.89997254399199 36.67631101366254 H 0.0 **** 0.06
31608 H 113.73208709936591 51.57782006030469 34.92748223453185 H 0.0 **** 0.06
31609 H 112.27694295251916 52.11029174063643 35.80559506975402 H 0.0 **** 0.06
31610 H 112.93201143619518 50.476507964604764 36.07587560084136 H 0.0 **** 0.06
31611 C 85.80034164765665 58.496639235171756 147.03152120246403 C 0.0 **** -0.24
31612 H 85.01168397557716 57.75327138240513 146.9115829116813 H 0.0 **** 0.06
31613 H 85.92633263305898 58.72520648409022 148.09001265394699 H 0.0 **** 0.06
31614 H 85.52882816310307 59.40398903598694 146.4927646737678 H 0.0 **** 0.06
31615 H 86.73439258795814 58.10134785233694 146.6310434262216 H 0.0 **** 0.06
31616 C 12.658678545212972 88.07036871942961 84.02621157810535 C 0.0 **** -0.24
31617 H 12.812112884136887 87.27420873933067 84.7542514301046 H 0.0 **** 0.06
31618 H 13.501509159531572 88.09691543775682 83.33466062575343 H 0.0 **** 0.06
31619 H 12.583598157399074 89.02663503603927 84.54519959635888 H 0.0 **** 0.06
31620 H 11.739433195033527 87.88338716171461 83.47219469827138 H 0.0 **** 0.06
31621 C 10.154980927225438 152.03480873103751 106.82726843087835 C 0.0 **** -0.24
31622 H 9.163256006201209 152.07082714806498 106.3767129937552 H 0.0 **** 0.06
31623 H 10.86645702870723 151.6294319962569 106.1071091792627 H 0.0 **** 0.06
31624 H 10.128173313267325 151.39711496519936 107.71112185924616 H 0.0 **** 0.06
31625 H 10.46002062559603 153.04053620213256 107.11455202077727 H 0.0 **** 0.06
31626 C 123.92059176732758 137.7151700347671 16.434267369322242 C 0.0 **** -0.24
31627 H 124.86419328477467 137.2732608038387 16.754359956778273 H 0.0 **** 0.06
31628 H 124.101926037948 138.3920956789293 15.599219813838886 H 0.0 **** 0.06
31629 H 123.47895874717722 138.2695969964468 17.26230594017443 H 0.0 **** 0.06
31630 H 123.23792262131332 136.92462907535025 16.1205561584174 H 0.0 **** 0.06
31631 C 41.43742107438413 105.28905167831385 18.672193509245886 C 0.0 **** -0.24
31632 H 41.48885269731181 105.12487071043893 19.74884771299989 H 0.0 **** 0.06
31633 H 40.41109629124574 105.52269174734101 18.38940806513355 H 0.0 **** 0.06
31634 H 41.76217379794244 104.38826781221758 18.15262646592052 H 0.0 **** 0.06
31635 H 42.08784303581248 106.12013941568603 18.400097402285382 H 0.0 **** 0.06
31636 C 51.61714584920115 148.63303495225665 144.33615009779734 C 0.0 **** -0.24
31637 H 52.25141142649335 148.8442887802629 143.4747472427503 H 0.0 **** 0.06
31638 H 51.554003327686715 147.55509517399702 144.48454048854177 H 0.0 **** 0.06
31639 H 50.61941311302036 149.0365118932025 144.15924151912148 H 0.0 **** 0.06
31640 H 52.04481144288354 149.09850386932783 145.22388523226294 H 0.0 **** 0.06
31641 C 3.4179509716699954 4.696920391202013 52.578434879229874 C 0.0 **** -0.24
31642 H 4.301655990093394 4.329429773768297 53.09864819822492 H 0.0 **** 0.06
31643 H 3.595130014671412 4.677086839367547 51.50228287938401 H 0.0 **** 0.06
31644 H 3.2106029898015436 5.719548968081924 52.893057595253325 H 0.0 **** 0.06
31645 H 2.565608593029225 4.062604785792146 52.81848693383503 H 0.0 **** 0.06
31646 C 134.75869348254363 114.20199699067336 11.860559237202665 C 0.0 **** -0.24
31647 H 135.2588634917392 113.4926613910855 11.200935984992952 H 0.0 **** 0.06
31648 H 134.11134315331108 113.66107824320943 12.551597115027107 H 0.0 **** 0.06
31649 H 134.16025676833158 114.89191406017801 11.2651922861277 H 0.0 **** 0.06
31650 H 135.50561678324704 114.76219612119314 12.42398749805875 H 0.0 **** 0.06
31651 C 3.4617889078197663 63.46139864296666 125.5203433675079 C 0.0 **** -0.24
31652 H 4.279270243105032 62.74551723476338 125.43447758420007 H 0.0 **** 0.06
31653 H 3.1213618278990225 63.50023749770149 126.55622891795338 H 0.0 **** 0.06
31654 H 2.6382917064588014 63.15105241678124 124.87796232374689 H 0.0 **** 0.06
31655 H 3.8098108153724297 64.44816892010635 125.21517943839845 H 0.0 **** 0.06
31656 C 132.0738056235061 49.038866031277536 50.902092664121085 C 0.0 **** -0.24
31657 H 131.3572891317457 49.85874746281 50.86626844839074 H 0.0 **** 0.06
31658 H 133.0806154119045 49.42957792181723 50.74933412457463 H 0.0 **** 0.06
31659 H 131.8401116300931 48.31842353652435 50.11731904842664 H 0.0 **** 0.06
31660 H 132.0172818978145 48.54837655967637 51.87375206761277 H 0.0 **** 0.06
31661 C 91.52730782399988 48.57637676274686 81.60287275190342 C 0.0 **** -0.24
31662 H 91.45447797867672 47.497644941026806 81.45701531845415 H 0.0 **** 0.06
31663 H 92.25130654628077 48.787483433698185 82.39070186988545 H 0.0 **** 0.06
31664 H 90.55272108625729 48.9703644520626 81.88908982493993 H 0.0 **** 0.06
31665 H 91.85182434944596 49.04643992175846 80.67455087580556 H 0.0 **** 0.06
31666 C 34.114714833664834 91.48574438879271 118.38711194449533 C 0.0 **** -0.24
31667 H 33.23718754018759 90.98396434975201 118.79642299477348 H 0.0 **** 0.06
31668 H 34.18214434944218 92.49252415604714 118.80073212136179 H 0.0 **** 0.06
31669 H 34.02744892856151 91.54322469643883 117.30244125177038 H 0.0 **** 0.06
31670 H 35.00950748729282 90.92268745940889 118.65110026867592 H 0.0 **** 0.06
31671 C 92.29467611999544 102.13219852585598 27.908540771733556 C 0.0 **** -0.24
31672 H 92.47150728698861 101.08447489034097 27.662155248439404 H 0.0 **** 0.06
31673 H 91.32840264359055 102.44090074130736 27.51001930708469 H 0.0 **** 0.06
31674 H 93.08281164665425 102.74601233137656 27.470640203849342 H 0.0 **** 0.06
31675 H 92.29766436022823 102.25498336415001 28.991898897821244 H 0.0 **** 0.06
31676 C 101.27326182962835 133.24961149583999 69.65671972434714 C 0.0 **** -0.24
31677 H 101.27020886594866 133.67305053301595 70.66073959212548 H 0.0 **** 0.06
31678 H 101.58401515734974 134.01260955108407 68.94240381424163 H 0.0 **** 0.06
31679 H 100.27141611884758 132.9026522054124 69.40556588730078 H 0.0 **** 0.06
31680 H 101.96869885923371 132.41069870460052 69.61828086279826 H 0.0 **** 0.06
31681 C 29.89199982863863 19.425599262073668 103.84034761051356 C 0.0 **** -0.24
31682 H 29.063654763916873 19.392986077964295 103.13184233673044 H 0.0 **** 0.06
31683 H 29.88572905257425 20.38359497595534 104.36114965875893 H 0.0 **** 0.06
31684 H 30.83341040081831 19.310362253210386 103.30196256130972 H 0.0 **** 0.06
31685 H 29.784311151674046 18.616934147129165 104.56243465632932 H 0.0 **** 0.06
31686 C 160.93224436078285 113.25825034945026 66.08607542285517 C 0.0 **** -0.24
31687 H 160.28281131323237 113.25498627986872 65.21133438482786 H 0.0 **** 0.06
31688 H 160.68007758641883 112.41423340272226 66.72942619831622 H 0.0 **** 0.06
31689 H 160.79493460325563 114.1887341675143 66.63690275477546 H 0.0 **** 0.06
31690 H 161.9712319892028 113.1745322737545 65.76795306315842 H 0.0 **** 0.06
31691 C 118.39058841047449 99.7926280889152 33.559333276518416 C 0.0 **** -0.24
31692 H 117.93012068100094 98.92605558718196 33.085156709404245 H 0.0 **** 0.06
31693 H 117.6771172319095 100.25459518656817 34.24278420960947 H 0.0 **** 0.06
31694 H 118.67928114559655 100.51346026436113 32.79482669405279 H 0.0 **** 0.06
31695 H 119.27390663163763 99.47753372582099 34.11459385570599 H 0.0 **** 0.06
31696 C 122.93552360321712 73.51968650848016 134.5024212015191 C 0.0 **** -0.24
31697 H 123.19570197293208 74.20222492226563 133.69339686033254 H 0.0 **** 0.06
31698 H 122.0688855926739 73.90495770957327 135.03963113797388 H 0.0 **** 0.06
31699 H 123.77854841842202 73.43161884723042 135.18858746356437 H 0.0 **** 0.06
31700 H 122.70052411967251 72.53846834442294 134.08867726351713 H 0.0 **** 0.06
31701 C 141.43541380362558 127.35984805765992 142.2848847640502 C 0.0 **** -0.24
31702 H 141.24878862118084 127.5161768098535 143.34685754467313 H 0.0 **** 0.06
31703 H 142.07770098827282 128.15746207396765 141.90767925383338 H 0.0 **** 0.06
31704 H 140.48864650864599 127.3698227409368 141.74525430004698 H 0.0 **** 0.06
31705 H 141.92729416983622 126.39811874478096 142.13896597912387 H 0.0 **** 0.06
31706 C 160.39085157022296 161.3248609957681 55.7106123691068 C 0.0 **** -0.24
31707 H 160.81487440059138 161.3192529322461 54.706535160068825 H 0.0 **** 0.06
31708 H 161.03723096063305 161.89939012903284 56.375122606565014 H 0.0 **** 0.06
31709 H 160.31052954721164 160.30121237785846 56.076804592828466 H 0.0 **** 0.06
31710 H 159.40077137245567 161.77958854393478 55.68398711696511 H 0.0 **** 0.06
31711 C 154.56267187657596 108.22620918783065 161.5980383070439 C 0.0 **** -0.24
31712 H 153.47472209846637 108.27849494976186 161.5655680927572 H 0.0 **** 0.06
31713 H 154.981549373252 109.17494439997785 161.2637809641913 H 0.0 **** 0.06
31714 H 154.90754485801847 107.42476065563483 160.94498186087384 H 0.0 **** 0.06
31715 H 154.88620471868052 108.02671639067162 162.6205699879264 H 0.0 **** 0.06
31716 C 132.13436906709836 14.68197845344315 83.73222147915124 C 0.0 **** -0.24
31717 H 131.52358257923305 14.375728593919007 82.88329997039732 H 0.0 **** 0.06
31718 H 132.62102659456144 13.806689305715679 84.16409212678748 H 0.0 **** 0.06
31719 H 131.50117083204702 15.153662448668797 84.4843578303866 H 0.0 **** 0.06
31720 H 132.89157742787785 15.391359706556614 83.39846320083777 H 0.0 **** 0.06
31721 C 56.8218736856511 143.9860022966334 48.72295981942483 C 0.0 **** -0.24
31722 H 56.870052394354744 144.7641352897232 49.48557882795035 H 0.0 **** 0.06
31723 H 55.78011480032296 143.8009012027817 48.458602286454266 H 0.0 **** 0.06
31724 H 57.26759389966156 143.0698965607661 49.11032221218778 H 0.0 **** 0.06
31725 H 57.36909517003063 144.31116083385527 47.8378324587934 H 0.0 **** 0.06
31726 C 133.58535521276022 111.50374807631033 104.57842520152687 C 0.0 **** -0.24
31727 H 132.65465178663067 111.03875701774402 104.90397137815438 H 0.0 **** 0.06
31728 H 134.34037946916635 110.73318492619504 104.42428356426376 H 0.0 **** 0.06
31729 H 133.92815919966793 112.20237762828921 105.34145798126721 H 0.0 **** 0.06
31730 H 133.41591640507883 112.03993086435952 103.64429652454788 H 0.0 **** 0.06
31731 C 114.57715997285936 38.83243186569861 106.15102940767827 C 0.0 **** -0.24
31732 H 113.92297965706487 38.949724216562956 105.28624242874233 H 0.0 **** 0.06
31733 H 114.99614861624454 37.82586968505693 106.15402407070457 H 0.0 **** 0.06
31734 H 114.00425519174476 38.99039519947955 107.06417206885254 H 0.0 **** 0.06
31735 H 115.38458320608154 39.56207603863366 106.09596638554558 H 0.0 **** 0.06
31736 C 126.51463203873368 74.00309213056465 64.63781141584965 C 0.0 **** -0.24
31737 H 125.59707762704136 73.80765298396932 65.19368039984568 H 0.0 **** 0.06
31738 H 126.85978359474348 75.01475962960455 64.85196589645591 H 0.0 **** 0.06
31739 H 126.31987095752254 73.90386283331007 63.56947132266538 H 0.0 **** 0.06
31740 H 127.27970547010614 73.2871765897444 64.9354527931028 H 0.0 **** 0.06
31741 C 129.39378257144355 37.34320650061716 30.587524820192392 C 0.0 **** -0.24
31742 H 129.3799778736508 37.75482887670074 29.57813177599438 H 0.0 **** 0.06
31743 H 128.37801071902285 37.087567708115614 30.88859158675563 H 0.0 **** 0.06
31744 H 129.80259093756158 38.08321869032602 31.275843458279617 H 0.0 **** 0.06
31745 H 130.01494295899542 36.448187309145 30.605559488553965 H 0.0 **** 0.06
31746 C 52.53217266083436 76.28953105720586 74.3022473612335 C 0.0 **** -0.24
31747 H 53.199542615202915 76.22320125378425 73.44379787797139 H 0.0 **** 0.06
31748 H 53.04756389747166 75.92593859015913 75.1915129361129 H 0.0 **** 0.06
31749 H 51.64625166183038 75.6812111083267 74.12191250898276 H 0.0 **** 0.06
31750 H 52.23568529735803 77.32738369474399 74.45261686755467 H 0.0 **** 0.06
31751 C 67.25909625111483 117.67189948562608 148.31675388390494 C 0.0 **** -0.24
31752 H 66.54528197479733 116.85548321104682 148.43200812066246 H 0.0 **** 0.06
31753 H 68.26931532889478 117.26504835392038 148.26277746278987 H 0.0 **** 0.06
31754 H 67.18321460780268 118.34356035883206 149.17299600031197 H 0.0 **** 0.06
31755 H 67.0377690354345 118.22135053569221 147.402655632368 H 0.0 **** 0.06
31756 C 52.43426928471827 133.0455162545263 131.66313471127418 C 0.0 **** -0.24
31757 H 52.35919196042941 134.12223166972854 131.512359536306 H 0.0 **** 0.06
31758 H 52.545310591991495 132.8342360231939 132.72714005771317 H 0.0 **** 0.06
31759 H 53.30030216770494 132.66217614174826 131.12335302743358 H 0.0 **** 0.06
31760 H 51.53014781329854 132.56371778973522 131.289055171119 H 0.0 **** 0.06
31761 C 117.45799584135918 138.85795728695933 85.1456078120979 C 0.0 **** -0.24
31762 H 116.57950306841559 138.4324208443724 85.63289120543806 H 0.0 **** 0.06
31763 H 118.2093217163789 139.0993663058912 85.89779993176174 H 0.0 **** 0.06
31764 H 117.17274640501404 139.7640848690367 84.61199803711827 H 0.0 **** 0.06
31765 H 117.86732366911139 138.13490825004334 84.44090884035711 H 0.0 **** 0.06
31766 C 121.45457749885296 91.75767156427595 64.04441941417446 C 0.0 **** -0.24
31767 H 122.2732719537646 91.56189973168165 63.35283384606504 H 0.0 **** 0.06
31768 H 121.5217762118084 92.78438746390052 64.40501845489649 H 0.0 **** 0.06
31769 H 121.51942648498374 91.0705425661813 64.88811972073353 H 0.0 **** 0.06
31770 H 120.50384694800027 91.61450490191997 63.530944409376275 H 0.0 **** 0.06
31771 C 143.43933135910208 0.3754057766690835 86.81133675788159 C 0.0 **** -0.24
31772 H 144.47334780395988 0.10479805861510272 87.02837904308781 H 0.0 **** 0.06
31773 H 143.08508691402523 -0.20032144555037235 85.95657428878856 H 0.0 **** 0.06
31774 H 143.38323217604554 1.438804552646161 86.58172461083011 H 0.0 **** 0.06
31775 H 142.81786800072794 0.15713720584821544 87.68030223875677 H 0.0 **** 0.06
31776 C 63.94958626097083 6.519158110756052 57.57027310596477 C 0.0 **** -0.24
31777 H 64.3254346641441 7.040280320304532 56.68973947316148 H 0.0 **** 0.06
31778 H 64.34776619396844 5.504622746210401 57.589704886927635 H 0.0 **** 0.06
31779 H 62.860446479987374 6.482551442326269 57.53249252769575 H 0.0 **** 0.06
31780 H 64.26316017209936 7.050849664820333 58.46823820956391 H 0.0 **** 0.06
31781 C 17.97540685608641 27.175954973449286 95.96465889885793 C 0.0 **** -0.24
31782 H 18.510361689317165 26.54345920799338 95.25653653952102 H 0.0 **** 0.06
31783 H 17.112339183640465 26.633536214675495 96.35491527415724 H 0.0 **** 0.06
31784 H 17.637707642415414 28.081959047359597 95.46126767860744 H 0.0 **** 0.06
31785 H 18.638915995307677 27.44265902651405 96.78726842040476 H 0.0 **** 0.06
31786 C 7.383090094912113 123.40761402154084 14.877835362823348 C 0.0 **** -0.24
31787 H 7.586802640008742 122.61516456688071 15.59696738973625 H 0.0 **** 0.06
31788 H 6.823725394565052 122.99896000248918 14.035728535482448 H 0.0 **** 0.06
31789 H 8.325279913025824 123.82397840769218 14.519870372597566 H 0.0 **** 0.06
31790 H 6.797591779267911 124.19194917983995 15.355990037657243 H 0.0 **** 0.06
31791 C 61.21340717049027 19.2258990715942 137.43098645845035 C 0.0 **** -0.24
31792 H 60.14802730243849 19.195281420991762 137.65927827110917 H 0.0 **** 0.06
31793 H 61.50080195918321 20.246296058482756 137.17404262702146 H 0.0 **** 0.06
31794 H 61.42415017266667 18.566522371529686 136.58904132417103 H 0.0 **** 0.06
31795 H 61.78172535783345 18.89641242531758 138.30152875073748 H 0.0 **** 0.06
31796 C 13.895135034420662 131.3052548983241 8.972795335915272 C 0.0 **** -0.24
31797 H 12.996253746965692 130.87507213656562 8.53092082390799 H 0.0 **** 0.06
31798 H 14.751870048316732 131.09357863012565 8.334080932773084 H 0.0 **** 0.06
31799 H 14.059435009868565 130.86911255540656 9.958651441852588 H 0.0 **** 0.06
31800 H 13.77140920605899 132.38450470852973 9.069757515936544 H 0.0 **** 0.06
31801 C 61.379979133917246 17.558987793456964 60.05880232420894 C 0.0 **** -0.24
31802 H 61.328679111828535 16.824520799324915 59.255690646560666 H 0.0 **** 0.06
31803 H 60.93893817464361 18.496668597671118 59.721970896236456 H 0.0 **** 0.06
31804 H 62.42206535343399 17.724189287068526 60.334152396301405 H 0.0 **** 0.06
31805 H 60.83044455938814 17.187986440152144 60.924901425420316 H 0.0 **** 0.06
31806 C 95.65701038223315 130.74974176151414 84.12402235688381 C 0.0 **** -0.24
31807 H 95.84316281331297 130.04332231728367 83.31434110341823 H 0.0 **** 0.06
31808 H 95.0349286471093 131.56691440238927 83.75670901213351 H 0.0 **** 0.06
31809 H 96.60521953798846 131.14766200687268 84.48470603274302 H 0.0 **** 0.06
31810 H 95.14361856665188 130.239527144135 84.93878780329658 H 0.0 **** 0.06
31811 C 2.464296779179051 131.58877133789073 161.4636261313436 C 0.0 **** -0.24
31812 H 3.0520725243195557 131.51657287783098 160.54830109394362 H 0.0 **** 0.06
31813 H 3.107951661388597 131.40349770723253 162.32373713554801 H 0.0 **** 0.06
31814 H 1.6645683113112 130.84968146694212 161.4419618398884 H 0.0 **** 0.06
31815 H 2.0337086995990035 132.58748453941442 161.54014227630262 H 0.0 **** 0.06
31816 C 121.4109365193506 91.89546703547433 117.2546079912884 C 0.0 **** -0.24
31817 H 121.42180838880623 91.00600179318502 117.88388790968713 H 0.0 **** 0.06
31818 H 122.34117152115635 91.95258161235233 116.68906963501973 H 0.0 **** 0.06
31819 H 121.31090331717067 92.7815068447342 117.88066520763655 H 0.0 **** 0.06
31820 H 120.56909713186224 91.84173283988548 116.56416759310827 H 0.0 **** 0.06
31821 C 123.05873794976708 50.35770409030624 71.49653642454331 C 0.0 **** -0.24
31822 H 123.84446470104933 51.0975113429281 71.3431299038341 H 0.0 **** 0.06
31823 H 123.47992748769809 49.356823911177685 71.40337480054404 H 0.0 **** 0.06
31824 H 122.27977580585883 50.49591649337651 70.74622969505367 H 0.0 **** 0.06
31825 H 122.63166872053972 50.48229837376243 72.49192429477006 H 0.0 **** 0.06
31826 C 88.61702974561311 14.993934619135615 157.21977448195878 C 0.0 **** -0.24
31827 H 89.10179866131347 14.125899785937236 157.667230067163 H 0.0 **** 0.06
31828 H 89.19671603635186 15.32990271396983 156.35953083945418 H 0.0 **** 0.06
31829 H 88.55827765176365 15.796049826431783 157.95481544145304 H 0.0 **** 0.06
31830 H 87.61165147510218 14.72111308774447 156.89706898318792 H 0.0 **** 0.06
31831 C 79.55949741827826 88.86742850597116 149.2141715606566 C 0.0 **** -0.24
31832 H 79.69393255934459 88.3842836475631 148.24636212889928 H 0.0 **** 0.06
31833 H 78.86305274082437 89.70007460498601 149.1105608944392 H 0.0 **** 0.06
31834 H 80.52064417845642 89.24009233060842 149.57049091414692 H 0.0 **** 0.06
31835 H 79.16159019215463 88.1468418632365 149.92785955279146 H 0.0 **** 0.06
31836 C 124.75607934706426 111.60602589749013 79.65670539023655 C 0.0 **** -0.24
31837 H 123.80038747403808 111.46895911511169 79.15200591600046 H 0.0 **** 0.06
31838 H 125.55887160601947 111.61321017152125 78.9186011510014 H 0.0 **** 0.06
31839 H 124.91577430406585 110.78785250871812 80.35947043151687 H 0.0 **** 0.06
31840 H 124.74936531968501 112.55309940328317 80.19691236347765 H 0.0 **** 0.06
31841 C 62.89645517494108 129.68927617651556 86.20846055571542 C 0.0 **** -0.24
31842 H 62.44645740769501 128.80522979059955 85.75651713164115 H 0.0 **** 0.06
31843 H 63.3242886502879 129.42329292323709 87.17573059113448 H 0.0 **** 0.06
31844 H 62.133821842687524 130.45537650472482 86.34691824281612 H 0.0 **** 0.06
31845 H 63.681673912699566 130.07119866871585 85.55601622845433 H 0.0 **** 0.06
31846 C 151.50175641312728 7.011549928328364 0.41033381451630646 C 0.0 **** -0.24
31847 H 151.7747191226287 8.053970195966542 0.246711703314066 H 0.0 **** 0.06
31848 H 151.56335394738582 6.467682361992303 -0.5321414701639213 H 0.0 **** 0.06
31849 H 150.48191077926532 6.959170429388159 0.793892392485418 H 0.0 **** 0.06
31850 H 152.1848351819042 6.566389303272395 1.1331977333483252 H 0.0 **** 0.06
31851 C 68.92918369377945 107.04523279303922 24.222508825501798 C 0.0 **** -0.24
31852 H 69.92738229226792 107.16005131678321 24.644075067431274 H 0.0 **** 0.06
31853 H 68.89627497437897 106.14538779667535 23.607033480555877 H 0.0 **** 0.06
31854 H 68.69110284047642 107.91374089726204 23.608195351633718 H 0.0 **** 0.06
31855 H 68.20165716429239 106.96012810991974 25.02892445018618 H 0.0 **** 0.06
31856 C 56.90221658872851 84.37988544925054 120.93501827288227 C 0.0 **** -0.24
31857 H 56.23263989178504 85.21778535631358 120.73727426891227 H 0.0 **** 0.06
31858 H 57.02510582424007 84.25991309061916 122.01089079856035 H 0.0 **** 0.06
31859 H 57.871402862118515 84.57357191090836 120.47651271499447 H 0.0 **** 0.06
31860 H 56.476648356686695 83.4680359946858 120.5138067284343 H 0.0 **** 0.06
31861 C 9.351451372113388 153.3146718120898 6.468664775700034 C 0.0 **** -0.24
31862 H 8.565119485601258 153.06327258130395 7.180123442502804 H 0.0 **** 0.06
31863 H 10.096250095830726 153.94244218597385 6.9575533791691555 H 0.0 **** 0.06
31864 H 8.920204667411355 153.85268598672903 5.62425498519346 H 0.0 **** 0.06
31865 H 9.82566519958317 152.39951613299672 6.1121353561425735 H 0.0 **** 0.06
31866 C 63.9542727246062 103.91453746897818 9.856575025003394 C 0.0 **** -0.24
31867 H 64.52197685318555 103.3977596289032 10.630398999676231 H 0.0 **** 0.06
31868 H 63.940456401124976 103.30825329611986 8.951081538328367 H 0.0 **** 0.06
31869 H 64.42319858998272 104.87508303974869 9.643958975801922 H 0.0 **** 0.06
31870 H 62.93353421448239 104.07666511911293 10.20159726875562 H 0.0 **** 0.06
31871 C 16.177392873571648 136.31186369376977 153.4750947978818 C 0.0 **** -0.24
31872 H 15.547875923675804 137.11189660904967 153.86587943036196 H 0.0 **** 0.06
31873 H 16.199271753213537 136.36642493672224 152.386217269547 H 0.0 **** 0.06
31874 H 15.772722300864245 135.3481476888769 153.7830152776421 H 0.0 **** 0.06
31875 H 17.189758696695975 136.4232186233234 153.8653683184817 H 0.0 **** 0.06
31876 C 94.01087676313892 23.55975012379038 22.148135502793764 C 0.0 **** -0.24
31877 H 93.02017033906458 23.671466348702012 21.707777561977764 H 0.0 **** 0.06
31878 H 94.00053606624431 22.732516686174684 22.858946175911996 H 0.0 **** 0.06
31879 H 94.28545031068586 24.47952782704762 22.66313079811792 H 0.0 **** 0.06
31880 H 94.73608897579521 23.35344267282114 21.360893264005483 H 0.0 **** 0.06
31881 C 14.553504643969887 86.68585519197755 62.726900258610385 C 0.0 **** -0.24
31882 H 14.691828592282796 86.09085126987878 63.630413798132395 H 0.0 **** 0.06
31883 H 14.438825206206275 87.73531560519486 62.99858634674035 H 0.0 **** 0.06
31884 H 13.662013267383912 86.34546660093906 62.200626021269386 H 0.0 **** 0.06
31885 H 15.424053077837819 86.57034613151012 62.08073622685038 H 0.0 **** 0.06
31886 C 25.585369399195642 6.857721777515977 22.109523135360973 C 0.0 **** -0.24
31887 H 26.3335952727641 7.503326573603161 21.649633641440886 H 0.0 **** 0.06
31888 H 25.11449633365706 6.243528013854821 21.341688878835242 H 0.0 **** 0.06
31889 H 24.82961258235128 7.471060626428951 22.598705005777873 H 0.0 **** 0.06
31890 H 26.064804165243615 6.2142221092544645 22.84652402295427 H 0.0 **** 0.06
31891 C 58.52282377264915 156.94259420516812 107.61121963590071 C 0.0 **** -0.24
31892 H 57.50533077260532 157.32969540533105 107.67717836149495 H 0.0 **** 0.06
31893 H 58.869154692771545 157.00513609137823 106.57965467985434 H 0.0 **** 0.06
31894 H 58.53694806191385 155.9024008095962 107.93747732021967 H 0.0 **** 0.06
31895 H 59.1777755957027 157.53323180394347 108.25136897575834 H 0.0 **** 0.06
31896 C 139.79144083474807 118.41619361234112 142.92120510568833 C 0.0 **** -0.24
31897 H 140.41983766649085 119.24849779549487 143.23695659122237 H 0.0 **** 0.06
31898 H 138.76573167315283 118.5913270827391 143.247234042678 H 0.0 **** 0.06
31899 H 140.1612419791925 117.49257015507541 143.36518668636236 H 0.0 **** 0.06
31900 H 139.81826023753007 118.33249297344659 141.8342148509379 H 0.0 **** 0.06
31901 C 49.449336335855904 153.47443170035706 14.353210060386147 C 0.0 **** -0.24
31902 H 49.175955804780884 153.11477154924802 13.361899071223093 H 0.0 **** 0.06
31903 H 48.608325283651894 153.33939292456807 15.033297402978036 H 0.0 **** 0.06
31904 H 49.70505071459253 154.53257756707274 14.298452997639487 H 0.0 **** 0.06
31905 H 50.30848492323561 152.9119960383889 14.720059778156838 H 0.0 **** 0.06
31906 C 106.89719543549455 139.31694360389696 1.775327761462762 C 0.0 **** -0.24
31907 H 106.22503310118802 139.98206969330698 2.3164515037503577 H 0.0 **** 0.06
31908 H 106.67126320802666 139.36134702396475 0.7095032694158192 H 0.0 **** 0.06
31909 H 106.76253177953296 138.29535506046483 2.1326349740283774 H 0.0 **** 0.06
31910 H 107.92791129507617 139.6276982229001 1.9423642890159556 H 0.0 **** 0.06
31911 C 85.3605205713288 46.886171819623556 25.803877853594855 C 0.0 **** -0.24
31912 H 84.82609756603443 47.76353393191587 26.168573122913244 H 0.0 **** 0.06
31913 H 84.76340208083138 46.390165783138855 25.038370577195963 H 0.0 **** 0.06
31914 H 85.53739879089528 46.198993503790376 26.630398191726783 H 0.0 **** 0.06
31915 H 86.31550543117484 47.19469787981231 25.37691007340962 H 0.0 **** 0.06
31916 C 32.6220844233591 44.22720866243117 37.0152615289948 C 0.0 **** -0.24
31917 H 32.27270529493825 44.27770813182349 38.047395211644215 H 0.0 **** 0.06
31918 H 33.69627414787726 44.41199985213933 36.98700325914854 H 0.0 **** 0.06
31919 H 32.10730686832113 44.98136958764837 36.4213295669351 H 0.0 **** 0.06
31920 H 32.41229077536414 43.23804912151081 36.60861318577538 H 0.0 **** 0.06
31921 C 151.0754402257683 120.6062258083403 75.40115992110796 C 0.0 **** -0.24
31922 H 150.26822172712295 121.32939474837508 75.2785920596554 H 0.0 **** 0.06
31923 H 150.94015916964838 120.0683714465788 76.33978050058927 H 0.0 **** 0.06
31924 H 152.0321878070605 121.128910038669 75.41537741120689 H 0.0 **** 0.06
31925 H 151.0589875998001 119.90025461138131 74.57105943024901 H 0.0 **** 0.06
31926 C 127.75612822677064 4.2297509752966675 104.39174241533235 C 0.0 **** -0.24
31927 H 128.26615687288142 3.4162145364585825 104.90850747446615 H 0.0 **** 0.06
31928 H 128.31830552067683 4.500472308998752 103.49786853558402 H 0.0 **** 0.06
31929 H 127.68887306847807 5.093452277188682 105.05362660122844 H 0.0 **** 0.06
31930 H 126.75351307719788 3.9092632083240204 104.10880725324085 H 0.0 **** 0.06
31931 C 54.46055952708001 28.425681821880488 115.97695139533263 C 0.0 **** -0.24
31932 H 54.61430023052496 29.484286054247747 116.18938908187161 H 0.0 **** 0.06
31933 H 54.65243076739223 28.236849811514475 114.92008631635588 H 0.0 **** 0.06
31934 H 53.43286660846525 28.153709606334644 116.21493289525654 H 0.0 **** 0.06
31935 H 55.144618698460505 27.831005599895548 116.58282358790649 H 0.0 **** 0.06
31936 C 56.917550708082004 102.91396523160012 76.7204958720533 C 0.0 **** -0.24
31937 H 55.97044831224919 102.82346356516956 76.18854347000888 H 0.0 **** 0.06
31938 H 57.42242808813508 101.94684243178091 76.7290541104681 H 0.0 **** 0.06
31939 H 56.72939057501107 103.23420265191868 77.74532786751553 H 0.0 **** 0.06
31940 H 57.54745896383537 103.64811676456145 76.21960972924143 H 0.0 **** 0.06
31941 C 149.44777769079823 49.53704096203762 134.04658857574748 C 0.0 **** -0.24
31942 H 149.48822824261273 48.94984167294024 134.96438682399918 H 0.0 **** 0.06
31943 H 149.50484765330833 50.597642833100736 134.29254703215742 H 0.0 **** 0.06
31944 H 148.5114196461246 49.33340446947341 133.52669660654158 H 0.0 **** 0.06
31945 H 150.2858189957081 49.26569762660722 133.406022134174 H 0.0 **** 0.06
31946 C 94.4930394999327 75.79499771098082 41.71289546273346 C 0.0 **** -0.24
31947 H 94.51448589962638 74.9986233195653 40.96916518391447 H 0.0 **** 0.06
31948 H 93.56769627093752 75.73210232924637 42.28562047464598 H 0.0 **** 0.06
31949 H 94.5454000034913 76.76108211805416 41.211497285005294 H 0.0 **** 0.06
31950 H 95.34483860709645 75.68742332204943 42.384704139823526 H 0.0 **** 0.06
31951 C 143.21885736224058 96.93828130683696 140.37692272625472 C 0.0 **** -0.24
31952 H 142.38378478043325 96.57310005565446 139.7789960615559 H 0.0 **** 0.06
31953 H 143.8887203126137 97.52410371534432 139.74736129650128 H 0.0 **** 0.06
31954 H 143.76208661096427 96.09103972160051 140.79681505697488 H 0.0 **** 0.06
31955 H 142.83958842986323 97.56360796003614 141.18542227674988 H 0.0 **** 0.06
31956 C 140.3638334772693 40.349462325887416 160.2711616751589 C 0.0 **** -0.24
31957 H 140.20716905851128 40.31602021928353 161.34980887081022 H 0.0 **** 0.06
31958 H 139.85316076639967 39.50775477474998 159.80295696794605 H 0.0 **** 0.06
31959 H 141.43131495050048 40.29308531222752 160.05733276674343 H 0.0 **** 0.06
31960 H 139.963177166052 41.283180138359455 159.87551606778536 H 0.0 **** 0.06
31961 C 4.8386468740874875 115.22716964671014 6.304907360284695 C 0.0 **** -0.24
31962 H 4.144245841342411 116.05402000209747 6.453701005177962 H 0.0 **** 0.06
31963 H 4.330283127717223 114.41558395048787 5.784231051825373 H 0.0 **** 0.06
31964 H 5.194454850837474 114.87318339944153 7.272731874879838 H 0.0 **** 0.06
31965 H 5.685688114945037 115.56677394443551 5.709427812235205 H 0.0 **** 0.06
31966 C 22.024452151778064 111.19931516920542 85.71358953016107 C 0.0 **** -0.24
31967 H 22.897653657219905 111.41009077888418 86.33193301398228 H 0.0 **** 0.06
31968 H 21.827003198904038 110.12749597946018 85.71611578316612 H 0.0 **** 0.06
31969 H 22.214418763859726 111.53228433635869 84.69289658119078 H 0.0 **** 0.06
31970 H 21.160779262836797 111.72957696011068 86.11358127974017 H 0.0 **** 0.06
31971 C 154.55880358267092 134.8163741504391 162.28036589402697 C 0.0 **** -0.24
31972 H 154.11068948143807 134.07724709577872 161.61549384808444 H 0.0 **** 0.06
31973 H 154.51017713776878 134.4571355783745 163.3082690850314 H 0.0 **** 0.06
31974 H 154.01495943323988 135.75657019060384 162.196683387367 H 0.0 **** 0.06
31975 H 155.60070741916732 134.97231129746547 161.99950849701145 H 0.0 **** 0.06
31976 C 134.7877471215872 134.40945752849228 86.89961571840378 C 0.0 **** -0.24
31977 H 135.38990059484885 134.83404794535636 87.70327550186167 H 0.0 **** 0.06
31978 H 135.44107701386758 134.0741821989933 86.09418269371687 H 0.0 **** 0.06
31979 H 134.10287403113028 135.1678454326929 86.52041987278038 H 0.0 **** 0.06
31980 H 134.21732664962005 133.56283133286894 87.28253535291645 H 0.0 **** 0.06
31981 C 16.842883966121633 1.4736439428704955 39.0600245149559 C 0.0 **** -0.24
31982 H 15.970530326089431 2.006545126997146 38.68272054244761 H 0.0 **** 0.06
31983 H 17.496959860402484 2.1719045817420906 39.582694271738546 H 0.0 **** 0.06
31984 H 17.382665819893134 1.0239585037713468 38.226403243459 H 0.0 **** 0.06
31985 H 16.521379858101454 0.6921675589714553 39.74828000217843 H 0.0 **** 0.06
31986 C 60.75080125794068 6.802474023353966 60.4673840641172 C 0.0 **** -0.24
31987 H 61.457104880652196 5.980143102151345 60.355384553212446 H 0.0 **** 0.06
31988 H 61.09401647042199 7.657090906949463 59.882222350648846 H 0.0 **** 0.06
31989 H 60.68529902668689 7.083838417915501 61.51789601491981 H 0.0 **** 0.06
31990 H 59.769435420196544 6.4892602740941925 60.11208830702441 H 0.0 **** 0.06
31991 C 62.44900295328742 82.88342400271668 93.67346842156842 C 0.0 **** -0.24
31992 H 61.37189208534207 82.8653661690558 93.84208921979257 H 0.0 **** 0.06
31993 H 62.788835732224356 83.91767736906412 93.60582552133472 H 0.0 **** 0.06
31994 H 62.679369671640586 82.36410461922763 92.74316072360541 H 0.0 **** 0.06
31995 H 62.95459250973818 82.38765015755558 94.50260373873898 H 0.0 **** 0.06
31996 C 148.85388254721107 118.50487040899537 78.65104043807384 C 0.0 **** -0.24
31997 H 147.88776904351363 118.4157192826209 79.14664370243878 H 0.0 **** 0.06
31998 H 149.5924422130257 117.90629488203695 79.18487639961228 H 0.0 **** 0.06
31999 H 149.16582772737962 119.5496314865012 78.64986844042369 H 0.0 **** 0.06
32000 H 148.77082147524362 118.14992172090967 77.6244703714143 H 0.0 **** 0.06
32001 C 12.057984860350189 4.353847335605337 40.99750668786851 C 0.0 **** -0.24
32002 H 12.501802520566258 5.263707680453251 41.400330300158885 H 0.0 **** 0.06
32003 H 11.462177763806494 4.598573689744285 40.118265670645656 H 0.0 **** 0.06
32004 H 11.41952949816445 3.895840747300525 41.75370084637268 H 0.0 **** 0.06
32005 H 12.847948171700153 3.6561868171058336 40.718995232522616 H 0.0 **** 0.06
32006 C 143.52086400690243 154.74284715367193 45.7075501099343 C 0.0 **** -0.24
32007 H 142.80566287191016 153.98168123132308 45.39824834087976 H 0.0 **** 0.06
32008 H 143.87396143151759 155.2864287759691 44.83101597160005 H 0.0 **** 0.06
32009 H 144.36566048133656 154.2672745077741 46.20533662770363 H 0.0 **** 0.06
32010 H 143.03662870081166 155.43713883181334 46.3950223794218 H 0.0 **** 0.06
32011 C 53.13302558336383 146.12290412049538 31.762497945645464 C 0.0 **** -0.24
32012 H 53.63892905170658 146.8204623753988 32.428553468032476 H 0.0 **** 0.06
32013 H 53.87106268539773 145.60891944130125 31.146085045174914 H 0.0 **** 0.06
32014 H 52.44129764943146 146.67022903991997 31.120834634667517 H 0.0 **** 0.06
32015 H 52.58118842313961 145.39280580760874 32.353029065467354 H 0.0 **** 0.06
32016 C 80.95159710481215 3.168004335761168 116.38488189446775 C 0.0 **** -0.24
32017 H 81.09674872628182 4.245210424318373 116.4737353847197 H 0.0 **** 0.06
32018 H 81.76794237129502 2.648413777688347 116.88659886060725 H 0.0 **** 0.06
32019 H 80.93593890667177 2.8897218232326622 115.33152417070733 H 0.0 **** 0.06
32020 H 80.00409749275582 2.8901297978553657 116.84800728037075 H 0.0 **** 0.06
32021 C 148.44314633145802 119.17557849139479 45.87276427859872 C 0.0 **** -0.24
32022 H 147.7002203132835 118.6940461368361 45.23715011075821 H 0.0 **** 0.06
32023 H 149.44260940869907 118.88914906071898 45.545066854168496 H 0.0 **** 0.06
32024 H 148.29527977813336 118.86105074173281 46.90601867234865 H 0.0 **** 0.06
32025 H 148.33424635427818 120.258063535291 45.803794797657645 H 0.0 **** 0.06
32026 C 162.44491274565138 50.449717718444234 41.421220728484855 C 0.0 **** -0.24
32027 H 162.95494717229482 51.21281544842526 42.00930116496306 H 0.0 **** 0.06
32028 H 161.3661995293834 50.57773949730506 41.51960835509735 H 0.0 **** 0.06
32029 H 162.72899074936598 49.461909652494754 41.78345788262973 H 0.0 **** 0.06
32030 H 162.7290598426567 50.54901688890152 40.3739223289121 H 0.0 **** 0.06
32031 C 108.73550476091728 46.91067183680376 145.58904475526094 C 0.0 **** -0.24
32032 H 107.83473941786448 46.853630191652044 144.9787629577229 H 0.0 **** 0.06
32033 H 109.59541141768247 47.11286984928857 144.95015323591792 H 0.0 **** 0.06
32034 H 108.88300532991605 45.96324950280203 146.1082984368823 H 0.0 **** 0.06
32035 H 108.62972497033684 47.71174285950151 146.31987488302735 H 0.0 **** 0.06
32036 C 134.60826989478883 149.3122198489146 39.31253721831939 C 0.0 **** -0.24
32037 H 133.55162902848792 149.15769085723528 39.10131309038691 H 0.0 **** 0.06
32038 H 134.86503078292597 148.8309116770701 40.2568089906768 H 0.0 **** 0.06
32039 H 134.8120111600062 150.38094618516874 39.38263990017097 H 0.0 **** 0.06
32040 H 135.20671353564464 148.8811871289402 38.509877974639735 H 0.0 **** 0.06
32041 C 26.12033472165257 83.13971998130194 139.4672227568251 C 0.0 **** -0.24
32042 H 25.623573711165932 82.42538144563053 140.12449807188406 H 0.0 **** 0.06
32043 H 27.101219708808173 82.7531536533117 139.18754432925402 H 0.0 **** 0.06
32044 H 26.239420339704907 84.08983712102594 139.98783478839434 H 0.0 **** 0.06
32045 H 25.51869834333465 83.28837743074507 138.5712470603022 H 0.0 **** 0.06
32046 C 154.85465198681771 32.40778481847246 48.6305843365453 C 0.0 **** -0.24
32047 H 154.53413098005382 32.74083681057121 49.61775175514295 H 0.0 **** 0.06
32048 H 154.5183261660128 31.384359935599704 48.4656743750061 H 0.0 **** 0.06
32049 H 155.94224025073964 32.448297608432505 48.56949144375655 H 0.0 **** 0.06
32050 H 154.4244891594584 33.05998368469581 47.86986200419656 H 0.0 **** 0.06
32051 C 125.52876234917335 156.00155254077438 40.37246946698974 C 0.0 **** -0.24
32052 H 124.8895618578523 155.41889130204734 41.03420461354261 H 0.0 **** 0.06
32053 H 126.28192490004417 155.35095704876522 39.92770712496383 H 0.0 **** 0.06
32054 H 126.01985282662068 156.79081647446608 40.94228475531321 H 0.0 **** 0.06
32055 H 124.92281601636014 156.44784483392544 39.58286821413424 H 0.0 **** 0.06
32056 C 18.690722967364252 52.97289014610719 25.41549112149343 C 0.0 **** -0.24
32057 H 19.65001938999214 53.064730850342556 24.907580232757383 H 0.0 **** 0.06
32058 H 17.88743158976041 52.96753519737645 24.677797970386386 H 0.0 **** 0.06
32059 H 18.55585476496279 53.8164957498161 26.092650643625497 H 0.0 **** 0.06
32060 H 18.66735954080005 52.04381632975803 25.985352386150808 H 0.0 **** 0.06
32061 C 44.101099026789655 18.955552381910934 111.53815091445733 C 0.0 **** -0.24
32062 H 43.86370636165202 17.909120355423966 111.72589954375536 H 0.0 **** 0.06
32063 H 43.39063705779438 19.589714353498266 112.06800299475185 H 0.0 **** 0.06
32064 H 44.04026104380256 19.155830982059967 110.46842007022468 H 0.0 **** 0.06
32065 H 45.111150952895116 19.16791557460772 111.8901620938916 H 0.0 **** 0.06
32066 C 37.20620580341722 136.92325649422438 56.371680701109156 C 0.0 **** -0.24
32067 H 36.21450393808948 136.87466781915788 56.82106294050058 H 0.0 **** 0.06
32068 H 37.508729637775104 135.92552561197806 56.051897482706494 H 0.0 **** 0.06
32069 H 37.918618223508474 137.30187291353866 57.10494124159561 H 0.0 **** 0.06
32070 H 37.18301642216693 137.59011246828518 55.50995266423071 H 0.0 **** 0.06
32071 C 143.0534123604514 105.95736265609702 23.738703831525548 C 0.0 **** -0.24
32072 H 143.70229078464996 106.76651547227061 24.072855513064283 H 0.0 **** 0.06
32073 H 143.65930351969314 105.15937728158323 23.309840109265743 H 0.0 **** 0.06
32074 H 142.36248755509453 106.33444752696818 22.984306862419793 H 0.0 **** 0.06
32075 H 142.48872302158514 105.56995970612942 24.587060936651042 H 0.0 **** 0.06
32076 C 162.6862051491126 21.1178300128378 140.22744458339196 C 0.0 **** -0.24
32077 H 163.37980808435736 21.24913017689795 141.0581822685483 H 0.0 **** 0.06
32078 H 161.6806363020337 20.9595855412515 140.61626178385634 H 0.0 **** 0.06
32079 H 162.98796430742462 20.254272923279586 139.63548901736124 H 0.0 **** 0.06
32080 H 162.69721234452194 22.010017265103016 139.60056450355017 H 0.0 **** 0.06
32081 C 14.697042889152641 78.11885465037753 154.21851726154938 C 0.0 **** -0.24
32082 H 15.241528791927493 77.18268535943005 154.34012319522665 H 0.0 **** 0.06
32083 H 15.405255298089905 78.94564918657836 154.15866031711099 H 0.0 **** 0.06
32084 H 14.035225879823862 78.26743643162379 155.07191140503102 H 0.0 **** 0.06
32085 H 14.1066515036295 78.07880006055235 153.30357820739127 H 0.0 **** 0.06
32086 C 116.52353518752659 46.702455200766096 66.13462164931389 C 0.0 **** -0.24
32087 H 116.86855579198902 46.36536672982706 65.1569739560984 H 0.0 **** 0.06
32088 H 116.73469509305329 47.76560192721337 66.24694426346504 H 0.0 **** 0.06
32089 H 117.0420189127127 46.14329389936282 66.91389961096618 H 0.0 **** 0.06
32090 H 115.45009318751875 46.533640082607704 66.2189873895225 H 0.0 **** 0.06
32091 C 104.22816668282428 42.43171958638705 113.98214202629634 C 0.0 **** -0.24
32092 H 103.54434033501809 41.82826412625066 114.57907157789788 H 0.0 **** 0.06
32093 H 104.59597603815735 43.26382285373275 114.58224308229876 H 0.0 **** 0.06
32094 H 103.70374336336818 42.8179089295876 113.1080483058496 H 0.0 **** 0.06
32095 H 105.06816419228437 41.81627537881468 113.65986501621495 H 0.0 **** 0.06
32096 C 18.68693003964293 60.87090084068603 154.99148993257174 C 0.0 **** -0.24
32097 H 18.39171004490533 59.95817355257539 154.47446972884518 H 0.0 **** 0.06
32098 H 18.010156051475498 61.04912564619133 155.82697466318638 H 0.0 **** 0.06
32099 H 18.640388385662902 61.711376359354375 154.29867563812186 H 0.0 **** 0.06
32100 H 19.705263835129806 60.764175575818 155.36429260530286 H 0.0 **** 0.06
32101 C 127.60639220917099 57.80507202984201 160.05167408013162 C 0.0 **** -0.24
32102 H 127.53555534316067 56.750585067248096 159.7823336220236 H 0.0 **** 0.06
32103 H 126.7324441112408 58.33579689440563 159.67232235127958 H 0.0 **** 0.06
32104 H 128.5088368049507 58.231455447174 159.61403407066638 H 0.0 **** 0.06
32105 H 127.64893599154715 57.900816762191894 161.13649333691762 H 0.0 **** 0.06
32106 C 28.515577454298494 28.807164174771174 119.3387852150152 C 0.0 **** -0.24
32107 H 29.19187350907032 28.17744001945391 119.91656456738596 H 0.0 **** 0.06
32108 H 27.637599723017985 28.229327404554056 119.05131068652875 H 0.0 **** 0.06
32109 H 29.02668011383878 29.162818162830206 118.44407734560355 H 0.0 **** 0.06
32110 H 28.206972021404823 29.659777473631266 119.94410258648406 H 0.0 **** 0.06
32111 C 103.12720072076377 27.97716123650588 121.88613184856598 C 0.0 **** -0.24
32112 H 103.60654429668205 28.393731094071114 121.00017634776853 H 0.0 **** 0.06
32113 H 102.73103542077394 28.78627971246837 122.49883419906294 H 0.0 **** 0.06
32114 H 103.85828133366792 27.40988996406955 122.46097291793518 H 0.0 **** 0.06
32115 H 102.31354877028372 27.318329504240467 121.58163533099042 H 0.0 **** 0.06
32116 C 123.64770688801883 70.07713574719116 20.422310018193627 C 0.0 **** -0.24
32117 H 122.78494726237537 69.68875708787994 19.880112882936203 H 0.0 **** 0.06
32118 H 123.34852013403807 70.95139707820078 21.001501095161075 H 0.0 **** 0.06
32119 H 124.42505449086818 70.3597140365996 19.712746028494962 H 0.0 **** 0.06
32120 H 124.03018446911 69.30856258638835 21.09366018045813 H 0.0 **** 0.06
32121 C 153.1438984408376 29.673727630935474 130.77269387961837 C 0.0 **** -0.24
32122 H 152.9652460034357 29.731396832540263 129.69821843777265 H 0.0 **** 0.06
32123 H 153.71822957497994 30.54374022964997 131.09149427435864 H 0.0 **** 0.06
32124 H 153.70289350386793 28.765967907622887 130.99982084801945 H 0.0 **** 0.06
32125 H 152.18994402144926 29.65399507390444 131.29890811756684 H 0.0 **** 0.06
32126 C 105.53666006477533 17.876384859473035 111.59739134934881 C 0.0 **** -0.24
32127 H 105.70831352009816 18.822189112891095 111.08382124583855 H 0.0 **** 0.06
32128 H 105.9020977386628 17.056498906873458 110.97950287212086 H 0.0 **** 0.06
32129 H 104.46861794855474 17.74901205426238 111.77628821271097 H 0.0 **** 0.06
32130 H 106.06676559120481 17.8782646319614 112.54962999764206 H 0.0 **** 0.06
32131 C 41.366586192509715 78.7290174398822 107.95582944161987 C 0.0 **** -0.24
32132 H 42.30961957961071 78.19274406780261 108.0584731800526 H 0.0 **** 0.06
32133 H 40.5786426773374 78.02924556288531 107.67768346035464 H 0.0 **** 0.06
32134 H 41.46543755953823 79.49246406235062 107.1829914430264 H 0.0 **** 0.06
32135 H 41.11409579669176 79.20355142961017 108.90455647092037 H 0.0 **** 0.06
32136 C 95.61419519062854 155.99066081758616 77.19248702573839 C 0.0 **** -0.24
32137 H 95.00824730942117 155.4667202339097 76.45392134979193 H 0.0 **** 0.06
32138 H 96.38325290736628 155.31810198907175 77.57456261598327 H 0.0 **** 0.06
32139 H 94.97884479187005 156.32087959979964 78.0142529777666 H 0.0 **** 0.06
32140 H 96.08602325373354 156.85611496085087 76.72759429586603 H 0.0 **** 0.06
32141 C 96.15786762427607 150.6423558305366 115.69723345054427 C 0.0 **** -0.24
32142 H 97.1642909498473 150.63696769239695 116.11318398621023 H 0.0 **** 0.06
32143 H 96.15532102961998 150.11125705947106 114.74454173011571 H 0.0 **** 0.06
32144 H 95.83492305428229 151.67190358265435 115.54021080458051 H 0.0 **** 0.06
32145 H 95.47520737727237 150.14970856829171 116.38963977605016 H 0.0 **** 0.06
32146 C 54.887366803621276 41.89392108260404 120.96671950293754 C 0.0 **** -0.24
32147 H 55.713641849998524 41.90909139862649 121.67675065370125 H 0.0 **** 0.06
32148 H 55.15948071285247 42.46943699964268 120.08065326713671 H 0.0 **** 0.06
32149 H 54.003519999665585 42.333788223010544 121.42836500790764 H 0.0 **** 0.06
32150 H 54.67338732229632 40.863892212269064 120.67955718445543 H 0.0 **** 0.06
32151 C 130.77598533433076 29.337549004117477 68.92777108753018 C 0.0 **** -0.24
32152 H 130.02836985398147 28.64100062136103 68.54794308928746 H 0.0 **** 0.06
32153 H 130.66323773181097 30.299746051100783 68.42873736046896 H 0.0 **** 0.06
32154 H 131.7731555982153 28.941322048935234 68.73304678057718 H 0.0 **** 0.06
32155 H 130.63934865808042 29.46482378177717 70.00159807623908 H 0.0 **** 0.06
32156 C 103.27805642418366 152.19853915989066 123.37637431819414 C 0.0 **** -0.24
32157 H 102.52304515831753 152.86429275540405 122.95828940665413 H 0.0 **** 0.06
32158 H 104.16159394343302 152.20523945943862 122.73763303158015 H 0.0 **** 0.06
32159 H 102.8783151640896 151.1860789881785 123.43407340371562 H 0.0 **** 0.06
32160 H 103.54890888089767 152.5398362692042 124.37595128513331 H 0.0 **** 0.06
32161 C 2.322682512632497 18.642059720924323 120.03740591691442 C 0.0 **** -0.24
32162 H 2.0753099233484633 19.04565440440416 119.05504650207826 H 0.0 **** 0.06
32163 H 2.0015816319730106 19.341882967704407 120.8089060806654 H 0.0 **** 0.06
32164 H 3.3999124941788565 18.492847746138636 120.1076995516957 H 0.0 **** 0.06
32165 H 1.8142354543201833 17.68860389840853 120.17681325882674 H 0.0 **** 0.06
32166 C 53.7433488017265 8.425046283787673 38.977319609506836 C 0.0 **** -0.24
32167 H 52.914070049176004 8.309726466553748 38.27833606833698 H 0.0 **** 0.06
32168 H 54.16041414709596 7.445354281519677 39.20965755901952 H 0.0 **** 0.06
32169 H 53.383688066941275 8.893978242982314 39.892671345082604 H 0.0 **** 0.06
32170 H 54.513375470809564 9.050382263196383 38.526369862063305 H 0.0 **** 0.06
32171 C 93.41428661947027 161.4238942042218 91.02035577559894 C 0.0 **** -0.24
32172 H 93.62934084765166 161.83105074565194 92.00774680823268 H 0.0 **** 0.06
32173 H 92.42021852493379 160.97513550793835 91.02075038265346 H 0.0 **** 0.06
32174 H 94.1548864269678 160.6651671636564 90.77032574594276 H 0.0 **** 0.06
32175 H 93.4507217099624 162.22506782026886 90.28199124117793 H 0.0 **** 0.06
32176 C 125.3725187239632 32.262546401792875 92.62880386534513 C 0.0 **** -0.24
32177 H 124.44145449063313 32.320434624803696 93.1913775594241 H 0.0 **** 0.06
32178 H 126.13995189873938 32.84860199949321 93.13510716807295 H 0.0 **** 0.06
32179 H 125.21630362552378 32.658483838325594 91.62472852826043 H 0.0 **** 0.06
32180 H 125.69236488095638 31.222665144548884 92.56400220562315 H 0.0 **** 0.06
32181 C 114.64452187221437 157.97994051389463 142.37526256471898 C 0.0 **** -0.24
32182 H 114.4516096988315 157.21817227268576 143.1299683784713 H 0.0 **** 0.06
32183 H 114.04669776603868 158.8654989988254 142.5909900897787 H 0.0 **** 0.06
32184 H 114.378193487683 157.5925313080002 141.39167008517492 H 0.0 **** 0.06
32185 H 115.70198284410628 158.24326715529415 142.38676110940384 H 0.0 **** 0.06
32186 C 31.724179942937752 159.44287585937835 89.39003095315906 C 0.0 **** -0.24
32187 H 30.9803858443386 159.16593162991845 90.13641159040755 H 0.0 **** 0.06
32188 H 32.08710408162955 160.45036977848457 89.5946939561773 H 0.0 **** 0.06
32189 H 31.271834055483026 159.4141398983519 88.39800305909179 H 0.0 **** 0.06
32190 H 32.55712020048662 158.74090633261045 89.42880162883975 H 0.0 **** 0.06
32191 C 25.522416950302222 97.63282966689081 83.08337005291582 C 0.0 **** -0.24
32192 H 24.530836043956135 97.41810902321572 83.48068501605508 H 0.0 **** 0.06
32193 H 25.46784513196299 98.4905369836564 82.41224788835308 H 0.0 **** 0.06
32194 H 25.888927504870992 96.76490456159235 82.53486946750365 H 0.0 **** 0.06
32195 H 26.20280939081261 97.85662364544999 83.90532093564426 H 0.0 **** 0.06
32196 C 30.129935192224963 56.939743809025344 118.12229185197663 C 0.0 **** -0.24
32197 H 29.621145283597798 55.976832215845036 118.16563863683916 H 0.0 **** 0.06
32198 H 30.214300261245313 57.25884746168083 117.0821864100966 H 0.0 **** 0.06
32199 H 31.125414925126933 56.843869280561364 118.55543619573999 H 0.0 **** 0.06
32200 H 29.558173303433023 57.67805159148213 118.6840060138191 H 0.0 **** 0.06
32201 C 69.04917367829752 96.76470012177023 29.271165469753498 C 0.0 **** -0.24
32202 H 70.10517349983095 96.76457496374078 29.541530447344996 H 0.0 **** 0.06
32203 H 68.60126819336091 95.81209817122111 29.55500005585432 H 0.0 **** 0.06
32204 H 68.94999986389631 96.90806862351027 28.194674449365777 H 0.0 **** 0.06
32205 H 68.54116127276782 97.57603800750664 29.793964794605586 H 0.0 **** 0.06
32206 C 56.88621426697323 40.71018549867601 16.70402421659253 C 0.0 **** -0.24
32207 H 57.14295788582132 39.65851736338385 16.577399973596812 H 0.0 **** 0.06
32208 H 55.87612836508245 40.792095921122566 17.106295307538744 H 0.0 **** 0.06
32209 H 56.93540693776927 41.2151239888497 15.73853879374596 H 0.0 **** 0.06
32210 H 57.59036387921992 41.17500472134783 17.393862791488488 H 0.0 **** 0.06
32211 C 102.37252579363152 106.22016294831337 109.47246838722648 C 0.0 **** -0.24
32212 H 103.22666000017307 105.85391162360071 110.04176406666912 H 0.0 **** 0.06
32213 H 101.80159939540758 106.91889853745454 110.08449248813673 H 0.0 **** 0.06
32214 H 101.7373374226982 105.38009542978295 109.19141295552151 H 0.0 **** 0.06
32215 H 102.72479645001388 106.72583451088832 108.57370785445559 H 0.0 **** 0.06
32216 C 23.782912466441317 129.83395407362246 24.58059104204176 C 0.0 **** -0.24
32217 H 23.82725080029494 130.07035042215455 25.642889814002842 H 0.0 **** 0.06
32218 H 22.864708556450147 129.28509001350608 24.3689812358366 H 0.0 **** 0.06
32219 H 24.6432345004338 129.22214419821285 24.308483448745505 H 0.0 **** 0.06
32220 H 23.79671048382933 130.75726775993985 24.001931132861046 H 0.0 **** 0.06
32221 C 150.89120667432638 85.55803042023697 25.810240908901108 C 0.0 **** -0.24
32222 H 151.96265094291175 85.64352381766048 25.9912903871583 H 0.0 **** 0.06
32223 H 150.36595334146136 86.33965771345575 26.360558648386927 H 0.0 **** 0.06
32224 H 150.54320415152534 84.58104564871786 26.145862512226415 H 0.0 **** 0.06
32225 H 150.69296165558126 85.6680511396815 24.744656481118284 H 0.0 **** 0.06
32226 C 150.0553632145933 89.32654232110008 133.76954076928854 C 0.0 **** -0.24
32227 H 150.90006459350937 88.97054884098708 134.35962643176953 H 0.0 **** 0.06
32228 H 150.294623102627 90.30206815388644 133.34477148090633 H 0.0 **** 0.06
32229 H 149.17744900778834 89.41410910876584 134.409820057445 H 0.0 **** 0.06
32230 H 149.85058947817657 88.62001282174987 132.96569276453062 H 0.0 **** 0.06
32231 C 61.34992449876148 158.1802634553554 52.8807717639455 C 0.0 **** -0.24
32232 H 60.574481879270536 158.8986319893438 52.61521340382215 H 0.0 **** 0.06
32233 H 60.99155857582372 157.53947957772078 53.68626399585882 H 0.0 **** 0.06
32234 H 62.24162490222727 158.7137910148156 53.208925036759794 H 0.0 **** 0.06
32235 H 61.591394901561586 157.56881547945457 52.01034352155786 H 0.0 **** 0.06
32236 C 118.98034843685531 159.19115899500883 148.07110217658538 C 0.0 **** -0.24
32237 H 118.0108895603322 159.23890396406344 148.56878964126406 H 0.0 **** 0.06
32238 H 119.76872899615469 159.1187051160658 148.8207070078936 H 0.0 **** 0.06
32239 H 119.12704158356829 160.0903045448511 147.4741137305133 H 0.0 **** 0.06
32240 H 119.01314205604143 158.3144785347778 147.42333459508427 H 0.0 **** 0.06
32241 C 139.23169259327082 61.66204462275161 20.476721407043847 C 0.0 **** -0.24
32242 H 140.24588970500864 61.33247463296021 20.253910593357254 H 0.0 **** 0.06
32243 H 138.9745258440439 62.5045495994149 19.834731934211447 H 0.0 **** 0.06
32244 H 139.1711463193775 61.96944779213331 21.521366483915322 H 0.0 **** 0.06
32245 H 138.5362897390425 60.84282403420116 20.298134430407266 H 0.0 **** 0.06
32246 C 105.63520638681496 59.34062474068922 151.19772889300927 C 0.0 **** -0.24
32247 H 105.12447124486184 58.38578057782941 151.31635457110372 H 0.0 **** 0.06
32248 H 105.64047994056668 59.62132826216863 150.14377129175256 H 0.0 **** 0.06
32249 H 106.66071072292559 59.25080354530783 151.55494429312233 H 0.0 **** 0.06
32250 H 105.11551702063662 60.10484404733006 151.7749460491734 H 0.0 **** 0.06
32251 C 153.78381039825223 17.165430084460127 84.17890070822227 C 0.0 **** -0.24
32252 H 153.47607863951336 17.24436259126506 85.22193843655111 H 0.0 **** 0.06
32253 H 153.46460352276927 18.055612591291975 83.63805702222393 H 0.0 **** 0.06
32254 H 153.32620877992395 16.283177783897713 83.7318621437049 H 0.0 **** 0.06
32255 H 154.86897396991512 17.07746822384047 84.1276700056918 H 0.0 **** 0.06
32256 C 24.429689678939972 53.83780073265979 89.40768343579973 C 0.0 **** -0.24
32257 H 24.564070413057088 53.947376749318664 90.48392912283317 H 0.0 **** 0.06
32258 H 23.467222339682664 53.36676263015511 89.20845347558688 H 0.0 **** 0.06
32259 H 25.229065815435952 53.21782428661379 89.00318643813799 H 0.0 **** 0.06
32260 H 24.458115932859357 54.82037794081586 88.93706806925869 H 0.0 **** 0.06
32261 C 143.26607217631408 49.5706991973114 57.539044838127964 C 0.0 **** -0.24
32262 H 143.63761327918203 48.90913611987287 58.32095808716318 H 0.0 **** 0.06
32263 H 142.1995684255212 49.3959465033829 57.39267837906081 H 0.0 **** 0.06
32264 H 143.79870894716095 49.36935447196123 56.609777267352214 H 0.0 **** 0.06
32265 H 143.4275315274029 50.607560650892935 57.834034773503745 H 0.0 **** 0.06
32266 C 106.78529493835106 159.1654127287724 17.219068609673997 C 0.0 **** -0.24
32267 H 105.99482719080783 159.7017994583909 16.693214160623583 H 0.0 **** 0.06
32268 H 107.62818267726425 159.00946997409966 16.545216255312468 H 0.0 **** 0.06
32269 H 106.40619941594883 158.20158614949816 17.55778197632994 H 0.0 **** 0.06
32270 H 107.1106040445843 159.75065724461507 18.07924574387436 H 0.0 **** 0.06
32271 C 35.457635529276374 34.78088579670447 69.96656541957742 C 0.0 **** -0.24
32272 H 35.408681144227074 34.43097166267347 68.93536979028329 H 0.0 **** 0.06
32273 H 34.86720828306045 35.69238426121271 70.06903554845644 H 0.0 **** 0.06
32274 H 36.49461570809676 34.98694090442501 70.23066623391082 H 0.0 **** 0.06
32275 H 35.05903796568134 34.01300572716505 70.62920410102402 H 0.0 **** 0.06
32276 C 15.215202459761073 135.29891941339082 121.18968535402897 C 0.0 **** -0.24
32277 H 15.354190588835948 135.38384951406658 120.11165471840314 H 0.0 **** 0.06
32278 H 14.150527244759303 135.24908303407796 121.41625511169894 H 0.0 **** 0.06
32279 H 15.650303378687497 136.16947629829724 121.68110856654866 H 0.0 **** 0.06
32280 H 15.707398570087854 134.39477810351482 121.5493621070334 H 0.0 **** 0.06
32281 C 160.0816011533517 145.38800704811115 118.87502611520361 C 0.0 **** -0.24
32282 H 160.74317826954385 145.4141687502066 118.00900928616554 H 0.0 **** 0.06
32283 H 159.89592049091897 146.40536974148506 119.22028937129457 H 0.0 **** 0.06
32284 H 160.55098599095746 144.81327292614446 119.67389997350256 H 0.0 **** 0.06
32285 H 159.13741905067394 144.9197235460553 118.59763728544834 H 0.0 **** 0.06
32286 C 6.416072568097093 4.4491770343156105 34.35030958449687 C 0.0 **** -0.24
32287 H 6.766680319905731 3.420060166318926 34.28542911451791 H 0.0 **** 0.06
32288 H 6.885459933925858 4.939289680551916 35.204057785376236 H 0.0 **** 0.06
32289 H 5.333410563750135 4.457190117458005 34.4776031054941 H 0.0 **** 0.06
32290 H 6.677776286212406 4.981773708328241 33.43649243882044 H 0.0 **** 0.06
32291 C 90.9983603769675 1.9669440532613862 147.99240712751825 C 0.0 **** -0.24
32292 H 90.10083240187683 1.4940100965161207 148.38998207372168 H 0.0 **** 0.06
32293 H 91.15783495550681 2.92182787230459 148.4945362394659 H 0.0 **** 0.06
32294 H 90.87790294177952 2.1341920263052145 146.92259969458698 H 0.0 **** 0.06
32295 H 91.85744630188582 1.31761076534832 148.16488770685766 H 0.0 **** 0.06
32296 C 137.10461941918135 127.38443615431484 23.887762947606063 C 0.0 **** -0.24
32297 H 137.02550250497882 128.46823726281016 23.79637059965421 H 0.0 **** 0.06
32298 H 136.45822126652007 127.0407601894903 24.694981070870256 H 0.0 **** 0.06
32299 H 138.13737441043133 127.11366979329469 24.109331421190348 H 0.0 **** 0.06
32300 H 136.79865202302608 126.91797741266043 22.951772549228906 H 0.0 **** 0.06
32301 C 34.56882084492261 23.76423606201027 136.2488236151148 C 0.0 **** -0.24
32302 H 34.37583273882058 23.183068528380602 137.15007869514207 H 0.0 **** 0.06
32303 H 33.713821872088715 23.687414067019347 135.57636244565438 H 0.0 **** 0.06
32304 H 35.45866142613025 23.379066311971712 135.75148887689144 H 0.0 **** 0.06
32305 H 34.72699653569941 24.80900700442507 136.51799830257067 H 0.0 **** 0.06
32306 C 150.59983835215826 129.99342115269076 18.051736132350726 C 0.0 **** -0.24
32307 H 150.43330722885347 129.69549236151263 19.086693456128444 H 0.0 **** 0.06
32308 H 149.64059482412205 130.09624948256572 17.54483473031476 H 0.0 **** 0.06
32309 H 151.19852732369787 129.2339117499166 17.54824843746144 H 0.0 **** 0.06
32310 H 151.1281340127476 130.9461417827811 18.0288903987132 H 0.0 **** 0.06
32311 C 6.79672258986276 90.06388958195436 16.126830766256113 C 0.0 **** -0.24
32312 H 6.480338996886182 90.43677849399188 15.15311822556918 H 0.0 **** 0.06
32313 H 7.277079968934501 89.09288423603843 16.005606725135465 H 0.0 **** 0.06
32314 H 5.92898102017768 89.96103482305975 16.77720010395489 H 0.0 **** 0.06
32315 H 7.5027335347758 90.76564865452059 16.57198763210036 H 0.0 **** 0.06
32316 C 64.24749696573633 41.86540857500768 79.72046742682681 C 0.0 **** -0.24
32317 H 63.444991812886826 41.83000205566816 80.45691952960865 H 0.0 **** 0.06
32318 H 64.74923214175158 42.83165957197741 79.77666078079739 H 0.0 **** 0.06
32319 H 63.830665630949 41.72986804306504 78.72268325873506 H 0.0 **** 0.06
32320 H 64.96435522129889 41.070707465094955 79.9258968044727 H 0.0 **** 0.06
32321 C 6.946140474981576 108.7473043378987 89.3838762719615 C 0.0 **** -0.24
32322 H 6.8354185627025 109.46494297626577 88.57079060184992 H 0.0 **** 0.06
32323 H 6.560907402007558 107.77783864682362 89.0670125372332 H 0.0 **** 0.06
32324 H 6.387270682008875 109.09398943218434 90.25327138582507 H 0.0 **** 0.06
32325 H 8.0003155939919 108.65272243376523 89.64372224013323 H 0.0 **** 0.06
32326 C 35.610130462686925 108.43880654489814 36.49866981816365 C 0.0 **** -0.24
32327 H 35.7120889072458 109.4930582364567 36.238933916460056 H 0.0 **** 0.06
32328 H 36.38278515274817 107.86322623790264 35.98945681710171 H 0.0 **** 0.06
32329 H 34.62759401229937 108.08269618526407 36.189910407124174 H 0.0 **** 0.06
32330 H 35.71751376165315 108.31840572096547 37.57658322806982 H 0.0 **** 0.06
32331 C 17.025808565286866 26.50732833323741 90.25828043172257 C 0.0 **** -0.24
32332 H 17.768388671675922 27.04531072418189 89.66800793207706 H 0.0 **** 0.06
32333 H 16.378756995690026 27.222171997529784 90.76648575756452 H 0.0 **** 0.06
32334 H 17.530828754126503 25.884516497583434 90.9967835724894 H 0.0 **** 0.06
32335 H 16.42664222031553 25.8777549873746 89.60089855534868 H 0.0 **** 0.06
32336 C 35.836543822493695 8.05753550015379 138.31176293105034 C 0.0 **** -0.24
32337 H 35.01483598657353 7.887407537716058 139.0080635782142 H 0.0 **** 0.06
32338 H 35.64828324048102 7.508203761157631 137.38870362406306 H 0.0 **** 0.06
32339 H 36.767515906934904 7.711459099830222 138.7580900376811 H 0.0 **** 0.06
32340 H 35.911843906292034 9.122561199096367 138.09247314118636 H 0.0 **** 0.06
32341 C 63.42863794072365 23.88564978125288 23.565508488598937 C 0.0 **** -0.24
32342 H 62.9137749526633 24.597371235291973 22.918814137387926 H 0.0 **** 0.06
32343 H 63.82208529644947 23.066893515090214 22.962079746646793 H 0.0 **** 0.06
32344 H 62.72700475940789 23.490608739844106 24.299789969158155 H 0.0 **** 0.06
32345 H 64.24828569981686 24.387593858729133 24.077176812548657 H 0.0 **** 0.06
32346 C 78.31364487622582 137.89942725842386 37.50041342555852 C 0.0 **** -0.24
32347 H 78.70739276376143 138.7857528206931 37.00426182106776 H 0.0 **** 0.06
32348 H 78.49085201694835 137.974701429061 38.57362230870467 H 0.0 **** 0.06
32349 H 78.81442314174335 137.01302783310683 37.109808673612974 H 0.0 **** 0.06
32350 H 77.2425758753109 137.82330211803057 37.31312217384027 H 0.0 **** 0.06
32351 C 110.21051728002396 87.18059827296055 100.45401594674311 C 0.0 **** -0.24
32352 H 110.54302556421362 87.47433186632647 99.45897241086399 H 0.0 **** 0.06
32353 H 109.87869836392844 88.06318402767155 101.00045481337915 H 0.0 **** 0.06
32354 H 111.0357707871859 86.71025615561076 100.98882600933112 H 0.0 **** 0.06
32355 H 109.38416956736205 86.47404065723576 100.367103948764 H 0.0 **** 0.06
32356 C 141.8942160471249 151.76985884868344 48.30309619927404 C 0.0 **** -0.24
32357 H 142.13793671686898 152.78908093457318 48.60575356721667 H 0.0 **** 0.06
32358 H 141.32070098511508 151.7934530690244 47.37664186525832 H 0.0 **** 0.06
32359 H 141.30372649834447 151.29091548223704 49.08474652313042 H 0.0 **** 0.06
32360 H 142.81539953980334 151.20738066872434 48.147044405525236 H 0.0 **** 0.06
32361 C 45.0237740030681 72.69965569578709 60.5248785954318 C 0.0 **** -0.24
32362 H 44.14445423163687 72.17759250970367 60.14683806547956 H 0.0 **** 0.06
32363 H 44.91495230602948 73.76937693582106 60.34702710411585 H 0.0 **** 0.06
32364 H 45.9117344720911 72.33387855332903 60.011011793813 H 0.0 **** 0.06
32365 H 45.12211618912613 72.51727993749864 61.59524898408807 H 0.0 **** 0.06
32366 C 110.9047567136839 78.07548069833027 124.75237511361206 C 0.0 **** -0.24
32367 H 110.16024475900173 77.37302569214934 124.37815491123467 H 0.0 **** 0.06
32368 H 111.29667887971925 77.71690952099298 125.70416321066767 H 0.0 **** 0.06
32369 H 110.44331274105309 79.05302583760073 124.89344185830305 H 0.0 **** 0.06
32370 H 111.7196435431087 78.15871192063483 124.03264050874654 H 0.0 **** 0.06
32371 C 86.35795134594039 1.9626578804290489 108.81185631831667 C 0.0 **** -0.24
32372 H 85.2910784212317 1.9406520974932846 109.03384451684715 H 0.0 **** 0.06
32373 H 86.50572172597943 1.891727712382533 107.73430090041384 H 0.0 **** 0.06
32374 H 86.8483634835587 1.122368550688691 109.30229347416017 H 0.0 **** 0.06
32375 H 86.78544918190943 2.897060195424558 109.17654768482711 H 0.0 **** 0.06
32376 C 41.396245798683864 84.26879794552873 23.19532465918593 C 0.0 **** -0.24
32377 H 40.754130606616684 83.62820157036495 22.590598912917642 H 0.0 **** 0.06
32378 H 40.87445625464504 85.19830009137087 23.420387432622192 H 0.0 **** 0.06
32379 H 42.31023705731852 84.48899672433315 22.64337144969636 H 0.0 **** 0.06
32380 H 41.64754679010464 83.75723457697516 24.124485350449135 H 0.0 **** 0.06
32381 C 127.75753847770983 92.80204799774235 46.166113096204825 C 0.0 **** -0.24
32382 H 128.4015382094095 91.94907752944836 46.382288047514734 H 0.0 **** 0.06
32383 H 127.25463497166385 93.11742671859912 47.08099954866674 H 0.0 **** 0.06
32384 H 127.01299619118893 92.51515359895119 45.42280611032153 H 0.0 **** 0.06
32385 H 128.36013371817293 93.62308009839279 45.77951889222199 H 0.0 **** 0.06
32386 C 148.4648967052084 54.57210275871191 112.32408498257962 C 0.0 **** -0.24
32387 H 149.06373630916428 53.66604564009545 112.22920349867923 H 0.0 **** 0.06
32388 H 147.40627145100663 54.31242906935388 112.29002565769821 H 0.0 **** 0.06
32389 H 148.69974170665427 55.24954753177536 111.50271035435094 H 0.0 **** 0.06
32390 H 148.68961362331402 55.058806220630174 113.27254418997597 H 0.0 **** 0.06
32391 C 15.453099996693389 78.93028148097028 135.7435983824319 C 0.0 **** -0.24
32392 H 14.489936241532469 78.97460774122374 135.2356804707091 H 0.0 **** 0.06
32393 H 15.59961327087283 79.84132335610806 136.32491624481423 H 0.0 **** 0.06
32394 H 16.249722181773393 78.83884219420554 135.00554838790796 H 0.0 **** 0.06
32395 H 15.47339357329161 78.06653704048483 136.40919481415017 H 0.0 **** 0.06
32396 C 142.82797262420397 97.89749248739534 35.98037907476943 C 0.0 **** -0.24
32397 H 143.76550649884808 97.77933041292033 35.4371251630578 H 0.0 **** 0.06
32398 H 142.4896429213473 96.92418827368795 36.336717110420125 H 0.0 **** 0.06
32399 H 142.07484737589346 98.32329572432297 35.31682512741902 H 0.0 **** 0.06
32400 H 142.98122977306656 98.56255728801622 36.830400204052296 H 0.0 **** 0.06
32401 C 75.5471554990657 129.29371608275204 57.68821718888432 C 0.0 **** -0.24
32402 H 76.3286919884224 129.93269022772913 57.276879591155364 H 0.0 **** 0.06
32403 H 75.26436653199272 129.6575787027363 58.67649259508892 H 0.0 **** 0.06
32404 H 75.91748289163445 128.27193035339798 57.76945383100201 H 0.0 **** 0.06
32405 H 74.67772957068829 129.31322947649946 57.030789892350754 H 0.0 **** 0.06
32406 C 107.29123961660196 144.69695451315008 129.89010759680073 C 0.0 **** -0.24
32407 H 107.2027058898077 145.27596952054097 128.9704172786868 H 0.0 **** 0.06
32408 H 106.62288001360139 143.837465917576 129.8443732180735 H 0.0 **** 0.06
32409 H 107.02218765151827 145.3230918696602 130.7405080272791 H 0.0 **** 0.06
32410 H 108.31945161638845 144.35286540819394 130.0045132149847 H 0.0 **** 0.06
32411 C 84.65939102685029 121.94265990463148 2.3416365852492618 C 0.0 **** -0.24
32412 H 85.52933322112943 122.54007230292734 2.067425198276169 H 0.0 **** 0.06
32413 H 84.32020820877459 122.22997846668989 3.3367345237034556 H 0.0 **** 0.06
32414 H 84.92871756876559 120.88682477402105 2.3395815042968024 H 0.0 **** 0.06
32415 H 83.85972944964882 122.11548889832949 1.6214467812634439 H 0.0 **** 0.06
32416 C 122.74945148283683 116.792241815191 103.29911211639606 C 0.0 **** -0.24
32417 H 123.72811586584172 116.31615706334222 103.24853388882724 H 0.0 **** 0.06
32418 H 122.6816411505176 117.38704734737132 104.21024602935745 H 0.0 **** 0.06
32419 H 121.97253046761818 116.02752132339327 103.30626558321808 H 0.0 **** 0.06
32420 H 122.6145716555657 117.43806971112738 102.43113076042843 H 0.0 **** 0.06
32421 C 39.42961116114296 94.24874077883501 124.90967725800607 C 0.0 **** -0.24
32422 H 38.83377243368963 93.88630159562882 124.0720383722576 H 0.0 **** 0.06
32423 H 38.96038133293786 95.13724402043978 125.33197005828899 H 0.0 **** 0.06
32424 H 40.43201924401984 94.49761686289625 124.56077383594715 H 0.0 **** 0.06
32425 H 39.492050967193165 93.47292593458694 125.67244815350745 H 0.0 **** 0.06
32426 C 151.7989083878187 9.064071724123039 37.13091575047406 C 0.0 **** -0.24
32427 H 152.13996785432374 8.034895661301988 37.01047910277725 H 0.0 **** 0.06
32428 H 151.15305968373417 9.331663005159527 36.29437272912935 H 0.0 **** 0.06
32429 H 152.66014335591967 9.731841963094979 37.155187080982614 H 0.0 **** 0.06
32430 H 151.2425996552604 9.154755846988706 38.064050708644004 H 0.0 **** 0.06
32431 C 27.603440230797446 87.17297085955875 83.67894150221024 C 0.0 **** -0.24
32432 H 26.975435566938813 88.04722586643564 83.8516093736209 H 0.0 **** 0.06
32433 H 26.99371998588998 86.27158406564092 83.7378050319264 H 0.0 **** 0.06
32434 H 28.385878764064955 87.13294553527305 84.43673419798223 H 0.0 **** 0.06
32435 H 28.058120826523805 87.24222130135342 82.6901185533132 H 0.0 **** 0.06
32436 C 87.09685967437558 125.01384397322687 30.677727975019167 C 0.0 **** -0.24
32437 H 87.708910591946 124.22703072677061 31.119137601257762 H 0.0 **** 0.06
32438 H 87.56041666608051 125.35916617100543 29.753030519556916 H 0.0 **** 0.06
32439 H 87.0151020678795 125.84598864758118 31.377210498296165 H 0.0 **** 0.06
32440 H 86.10309516001993 124.6217913620014 30.46134476003772 H 0.0 **** 0.06
32441 C 4.947618122074246 131.70384518735844 108.73500513921167 C 0.0 **** -0.24
32442 H 3.9735423415379145 132.1867725385525 108.66505252704752 H 0.0 **** 0.06
32443 H 5.666209150554323 132.24660335810668 108.12074024262895 H 0.0 **** 0.06
32444 H 4.868405088870212 130.67598961421137 108.37927615764673 H 0.0 **** 0.06
32445 H 5.28007338034525 131.70504846550685 109.77294246941042 H 0.0 **** 0.06
32446 C 44.034679024337294 12.341528564259761 140.3905774854552 C 0.0 **** -0.24
32447 H 43.668778838497985 11.331023151301508 140.57253000825716 H 0.0 **** 0.06
32448 H 45.0741389686458 12.29704888038782 140.06306185729375 H 0.0 **** 0.06
32449 H 43.966984974080646 12.92290649900599 141.31011599438955 H 0.0 **** 0.06
32450 H 43.42925328746952 12.812947150291222 139.61647281092866 H 0.0 **** 0.06
32451 C 150.17055955542753 7.178635021710228 60.36094364765074 C 0.0 **** -0.24
32452 H 150.4017831973258 7.988294541035756 59.6678909921454 H 0.0 **** 0.06
32453 H 149.41891745212115 7.516990048446033 61.07471315170274 H 0.0 **** 0.06
32454 H 151.07551780886268 6.888927088963641 60.89553203709899 H 0.0 **** 0.06
32455 H 149.78624367580682 6.323481420695813 59.80573156795725 H 0.0 **** 0.06
32456 C 162.53331318145274 9.757019720701209 102.57176068681554 C 0.0 **** -0.24
32457 H 162.20816594386886 9.831982979228258 103.60983566722484 H 0.0 **** 0.06
32458 H 162.63786838701537 8.707070655925833 102.29929048650263 H 0.0 **** 0.06
32459 H 163.49271447703447 10.26078568700575 102.45506084310352 H 0.0 **** 0.06
32460 H 161.79448439750735 10.228491072004402 101.92456935818399 H 0.0 **** 0.06
32461 C 126.65804256039041 70.44744900616794 58.9628665301546 C 0.0 **** -0.24
32462 H 127.4823681911713 70.6371946617947 58.27664160655149 H 0.0 **** 0.06
32463 H 125.92250229801098 71.2478169654492 58.87734733452851 H 0.0 **** 0.06
32464 H 127.03665800918432 70.40936601365877 59.98398986508266 H 0.0 **** 0.06
32465 H 126.18924203950138 69.49525073534357 58.71337424839146 H 0.0 **** 0.06
32466 C 161.94354426751784 146.53372329991225 86.14750486784428 C 0.0 **** -0.24
32467 H 162.13924795720632 145.80831558885777 86.93668770538193 H 0.0 **** 0.06
32468 H 162.71477114123934 147.30509790237622 86.16406529171849 H 0.0 **** 0.06
32469 H 160.96842181916605 146.99166937185333 86.3093795785781 H 0.0 **** 0.06
32470 H 161.9538905398245 146.03007445390978 85.18102225387514 H 0.0 **** 0.06
32471 C 118.70941726064294 89.04820774326765 62.33024979317645 C 0.0 **** -0.24
32472 H 119.22614542830667 89.14729062935527 61.37529353323822 H 0.0 **** 0.06
32473 H 119.30166351101968 89.52041684080459 63.113584191962104 H 0.0 **** 0.06
32474 H 118.5761942522731 87.9914730561315 62.5617174675636 H 0.0 **** 0.06
32475 H 117.73485153428595 89.53198463486584 62.267270348140244 H 0.0 **** 0.06
32476 C 67.90089272479922 13.165558955014205 119.32506898232964 C 0.0 **** -0.24
32477 H 67.54914116860424 13.926551038989288 118.62785540516583 H 0.0 **** 0.06
32478 H 68.58540661830877 13.620048866902494 120.04310768873063 H 0.0 **** 0.06
32479 H 68.41957663335211 12.381270377892406 118.77478519004066 H 0.0 **** 0.06
32480 H 67.04968913032208 12.736580498162937 119.8543399887073 H 0.0 **** 0.06
32481 C 8.320556387692505 112.8555480095435 110.5661491796584 C 0.0 **** -0.24
32482 H 8.842489061971776 113.70481472721266 111.00657757098281 H 0.0 **** 0.06
32483 H 7.333768641570799 113.17212951711116 110.22654501982726 H 0.0 **** 0.06
32484 H 8.213429464355812 112.06889994890903 111.31281342665949 H 0.0 **** 0.06
32485 H 8.893055731912398 112.47712324883273 109.71902281848588 H 0.0 **** 0.06
32486 C 122.2530466620315 148.4293795231906 10.830070079056327 C 0.0 **** -0.24
32487 H 122.31501577933466 149.4633720246522 10.492003271738895 H 0.0 **** 0.06
32488 H 122.98827415632576 148.25926027857082 11.616131659814528 H 0.0 **** 0.06
32489 H 122.45228062397393 147.7606744614786 9.992644723604087 H 0.0 **** 0.06
32490 H 121.25297375976623 148.23506741910816 11.21946948263502 H 0.0 **** 0.06
32491 C 102.45772167776667 45.64243942039309 145.10829243980288 C 0.0 **** -0.24
32492 H 103.21374210245233 46.425185099041656 145.05238041745156 H 0.0 **** 0.06
32493 H 102.9375847881578 44.66663502679873 145.02071905405833 H 0.0 **** 0.06
32494 H 101.7421064245485 45.76930507779632 144.2956542763579 H 0.0 **** 0.06
32495 H 101.93710590828462 45.707021339625726 146.06388349257608 H 0.0 **** 0.06
32496 C 130.04340052437806 61.392210769038655 152.27032696589424 C 0.0 **** -0.24
32497 H 130.69888847641334 62.19863662354487 152.60070065274692 H 0.0 **** 0.06
32498 H 130.4767265525537 60.90862859738503 151.39411082191344 H 0.0 **** 0.06
32499 H 129.06622704328777 61.80085264260745 152.01386322835307 H 0.0 **** 0.06
32500 H 129.93387494534045 60.662660676870686 153.07174921328763 H 0.0 **** 0.06
32501 C 44.855373436145385 44.873383787856284 133.22662324515153 C 0.0 **** -0.24
32502 H 44.76967024408262 45.84708475102332 132.7455440249659 H 0.0 **** 0.06
32503 H 45.87919382116729 44.50960784714911 133.1315875441304 H 0.0 **** 0.06
32504 H 44.17379818680584 44.169825391601606 132.74802358637208 H 0.0 **** 0.06
32505 H 44.5990554583675 44.96572505169358 134.28186730745074 H 0.0 **** 0.06
32506 C 101.88113013146378 30.173696474351573 32.55266028810587 C 0.0 **** -0.24
32507 H 102.19267666792584 29.983594559211525 33.5799153119288 H 0.0 **** 0.06
32508 H 100.83313431332977 29.895804074025705 32.43422685324617 H 0.0 **** 0.06
32509 H 102.49303195323924 29.582359603193055 31.872459081678244 H 0.0 **** 0.06
32510 H 102.00501665061526 31.233008457844534 32.326176009376354 H 0.0 **** 0.06
32511 C 150.27020284532466 49.87900884192591 36.65007085312732 C 0.0 **** -0.24
32512 H 149.37087180281543 49.38825564561958 37.022619966709456 H 0.0 **** 0.06
32513 H 149.99866563236105 50.58907109560586 35.868867936658134 H 0.0 **** 0.06
32514 H 150.9496975097117 49.130539218827735 36.24170814950398 H 0.0 **** 0.06
32515 H 150.76049612002203 50.407544531648085 37.46775257151606 H 0.0 **** 0.06
32516 C 98.36078044039442 109.041474537617 86.40747732584556 C 0.0 **** -0.24
32517 H 97.51033824735725 108.35930598786425 86.4166435504858 H 0.0 **** 0.06
32518 H 98.11658812065491 109.91713212490762 85.8065416059589 H 0.0 **** 0.06
32519 H 99.22737112056268 108.53640778202285 85.98120157974971 H 0.0 **** 0.06
32520 H 98.58701827065545 109.35197256666933 87.42788327237419 H 0.0 **** 0.06
32521 C 114.51365135883452 13.699205444540553 125.3255005161011 C 0.0 **** -0.24
32522 H 113.94174433985674 14.102824671604225 124.49055877725408 H 0.0 **** 0.06
32523 H 115.3135759352098 13.063716686206618 124.94561294830112 H 0.0 **** 0.06
32524 H 113.8554752944346 13.11076175892454 125.96492147260585 H 0.0 **** 0.06
32525 H 114.94238062231912 14.519140180980479 125.90258641398327 H 0.0 **** 0.06
32526 C 98.13823241452155 70.8545195233437 122.49485871813036 C 0.0 **** -0.24
32527 H 97.36869927578846 71.5768373168799 122.22391852874802 H 0.0 **** 0.06
32528 H 97.67164931000883 69.9749951970606 122.93862106956803 H 0.0 **** 0.06
32529 H 98.8216518032298 71.3058029857192 123.21466011690927 H 0.0 **** 0.06
32530 H 98.69227413970998 70.56203347934917 121.60304790370867 H 0.0 **** 0.06
32531 C 37.974919576929395 61.61009594023737 109.47659160034053 C 0.0 **** -0.24
32532 H 37.95515450028029 62.47122403855185 110.14438841778329 H 0.0 **** 0.06
32533 H 38.28978069939011 61.92909783469503 108.48230986820235 H 0.0 **** 0.06
32534 H 36.97800841584032 61.17201350758947 109.41945315012805 H 0.0 **** 0.06
32535 H 38.67612677514724 60.868833325247294 109.86009526493481 H 0.0 **** 0.06
32536 C 100.25894080751516 151.92348286383253 117.09522661975487 C 0.0 **** -0.24
32537 H 100.66353218135265 152.93496657237438 117.13784585015509 H 0.0 **** 0.06
32538 H 100.38895393254973 151.4391679479827 118.06388577327132 H 0.0 **** 0.06
32539 H 100.78694287973485 151.35353499937753 116.33071167570583 H 0.0 **** 0.06
32540 H 99.19787252574355 151.96663363691445 116.85033285503982 H 0.0 **** 0.06
32541 C 136.85039869874709 77.19577471759114 55.16508507670284 C 0.0 **** -0.24
32542 H 137.8048970267862 76.73202282431237 54.9178100187594 H 0.0 **** 0.06
32543 H 136.04247852389605 76.64043122500682 54.68912558321095 H 0.0 **** 0.06
32544 H 136.84317799275598 78.22537801390628 54.80966037296788 H 0.0 **** 0.06
32545 H 136.71113971936683 77.18410885565544 56.24715751877011 H 0.0 **** 0.06
32546 C 122.04136268882729 79.68356709642129 104.40681286379817 C 0.0 **** -0.24
32547 H 121.58978591215256 80.12865551118969 105.29357584335585 H 0.0 **** 0.06
32548 H 121.3699023141256 79.80624299359368 103.55706440589728 H 0.0 **** 0.06
32549 H 122.21765487770847 78.62256801784267 104.58166666919456 H 0.0 **** 0.06
32550 H 122.98948696323251 80.17933340371548 104.19658439422051 H 0.0 **** 0.06
32551 C 87.50459619891507 25.91459243450266 80.97032447790377 C 0.0 **** -0.24
32552 H 86.43690890794755 26.059776016039216 80.80308076498886 H 0.0 **** 0.06
32553 H 87.75606831018399 26.211077203297698 81.98911368295532 H 0.0 **** 0.06
32554 H 88.06890998491332 26.524004363487357 80.26438403413623 H 0.0 **** 0.06
32555 H 87.75521404791056 24.864047802057833 80.82446319569604 H 0.0 **** 0.06
32556 C 60.429013723327714 150.36667195727068 0.5836050007931988 C 0.0 **** -0.24
32557 H 59.62077789604662 151.0864296497036 0.7150606279710701 H 0.0 **** 0.06
32558 H 60.383325841600524 149.94930481872228 -0.4225392037434972 H 0.0 **** 0.06
32559 H 60.322806569029765 149.5656831895479 1.3149810192386724 H 0.0 **** 0.06
32560 H 61.387116492031836 150.8656142228717 0.7277942646566089 H 0.0 **** 0.06
32561 C 57.623069434497836 76.22465412551588 122.68667835625621 C 0.0 **** -0.24
32562 H 56.681372285486404 76.75524434032721 122.82369415438359 H 0.0 **** 0.06
32563 H 58.452566745757665 76.92370457631347 122.79344696028619 H 0.0 **** 0.06
32564 H 57.64809841396466 75.77901983154867 121.69265398132825 H 0.0 **** 0.06
32565 H 57.71059380672098 75.43996752489315 123.43901891640405 H 0.0 **** 0.06
32566 C 36.32383607233152 108.5829186008593 33.21295848075471 C 0.0 **** -0.24
32567 H 36.835564373173156 107.81481663765032 33.79236711013701 H 0.0 **** 0.06
32568 H 35.29626486017753 108.27025213080776 33.02488677505801 H 0.0 **** 0.06
32569 H 36.8396226038675 108.72645053362837 32.26392124748776 H 0.0 **** 0.06
32570 H 36.322942272127705 109.5183806054799 33.771632686279816 H 0.0 **** 0.06
32571 C 31.847833170736294 125.9538930839326 116.31818781454376 C 0.0 **** -0.24
32572 H 31.45340204167499 126.85321478499239 115.84527194951005 H 0.0 **** 0.06
32573 H 32.01466284635629 125.1876672855932 115.56043074779072 H 0.0 **** 0.06
32574 H 31.132058847536825 125.58758915365016 117.05525664138949 H 0.0 **** 0.06
32575 H 32.79048431459475 126.18747966877257 116.813873205774 H 0.0 **** 0.06
32576 C 54.559668194403926 34.09791428003177 0.26195813466541296 C 0.0 **** -0.24
32577 H 54.351878992013795 34.947892679542235 0.9114311549727319 H 0.0 **** 0.06
32578 H 54.121778349476784 34.2760077332826 -0.7206389788411549 H 0.0 **** 0.06
32579 H 54.12673845431176 33.19571599229391 0.6946704658734788 H 0.0 **** 0.06
32580 H 55.63699657855808 33.97147335882096 0.162173085018825 H 0.0 **** 0.06
32581 C 146.2614748138084 131.9741088755784 45.861893803575555 C 0.0 **** -0.24
32582 H 147.18627162862106 132.53702104760254 45.98913216274882 H 0.0 **** 0.06
32583 H 146.4954922642186 130.91882142688496 45.71777537469363 H 0.0 **** 0.06
32584 H 145.72484336562482 132.34935792748618 44.990355105812654 H 0.0 **** 0.06
32585 H 145.64025959068368 132.0911110891739 46.75009254053185 H 0.0 **** 0.06
32586 C 161.0288781475979 81.16086783410319 83.26740630462842 C 0.0 **** -0.24
32587 H 161.29267189701855 81.97335596946981 83.94497605408091 H 0.0 **** 0.06
32588 H 160.2299812326252 81.48801072478636 82.60230925196436 H 0.0 **** 0.06
32589 H 160.69119954579978 80.30167609200156 83.84665543754082 H 0.0 **** 0.06
32590 H 161.90237307354047 80.88108716228692 82.67793343378946 H 0.0 **** 0.06
32591 C 111.6969080571846 44.62979098096562 120.35152339401967 C 0.0 **** -0.24
32592 H 111.22885553190176 44.690404120060364 119.36865068736478 H 0.0 **** 0.06
32593 H 112.55902644734465 43.96328173930689 120.30181198765064 H 0.0 **** 0.06
32594 H 110.9779538453617 44.24161812133546 121.07309080750278 H 0.0 **** 0.06
32595 H 112.02265331561443 45.622981703975185 120.66067072213079 H 0.0 **** 0.06
32596 C 35.96268627909086 94.09474741262295 13.848008557961236 C 0.0 **** -0.24
32597 H 35.131740868945144 93.39885083640718 13.726346813823405 H 0.0 **** 0.06
32598 H 35.59967794211829 95.01549089991181 14.305997935455075 H 0.0 **** 0.06
32599 H 36.394061196617656 94.3187802820006 12.873118940055548 H 0.0 **** 0.06
32600 H 36.72148811018047 93.64387156512527 14.487436898142505 H 0.0 **** 0.06
32601 C 63.941608065517116 72.52944225845235 31.0411150125326 C 0.0 **** -0.24
32602 H 64.7709878285255 71.83826729584217 31.193955653018463 H 0.0 **** 0.06
32603 H 64.33211704536274 73.51164331574263 30.773866641551876 H 0.0 **** 0.06
32604 H 63.36018055474878 72.60727213451908 31.96011361605369 H 0.0 **** 0.06
32605 H 63.303814106027914 72.16037538558508 30.23775309350782 H 0.0 **** 0.06
32606 C 120.59626437506054 108.62611950525758 15.201964443534791 C 0.0 **** -0.24
32607 H 120.73290204450936 108.07531749443882 14.271463427138656 H 0.0 **** 0.06
32608 H 120.94764678988614 109.650005753941 15.07280866148622 H 0.0 **** 0.06
32609 H 121.16650766590399 108.14274722717039 15.996363423938021 H 0.0 **** 0.06
32610 H 119.5393612275814 108.63464214658845 15.467039783016645 H 0.0 **** 0.06
32611 C 26.951263277957324 4.5908268092642 138.40578042473132 C 0.0 **** -0.24
32612 H 26.087879359032797 4.987893138631094 137.87268346366616 H 0.0 **** 0.06
32613 H 26.612480716478153 4.018919116301227 139.27069075395252 H 0.0 **** 0.06
32614 H 27.582818581518524 5.41359683288573 138.73992892994687 H 0.0 **** 0.06
32615 H 27.52089538136064 3.9416987749976684 137.74143195383016 H 0.0 **** 0.06
32616 C 81.52951633389014 131.27464598224793 115.37160212169937 C 0.0 **** -0.24
32617 H 80.93374008520402 130.8510757825676 116.18070584233442 H 0.0 **** 0.06
32618 H 80.96723335318563 132.0740030086842 114.88719826078665 H 0.0 **** 0.06
32619 H 81.75775638397158 130.49707944747792 114.6429440361199 H 0.0 **** 0.06
32620 H 82.45701106632447 131.67773035378227 115.7769369634961 H 0.0 **** 0.06
32621 C 16.935304350181703 119.75668793194694 134.19684516605685 C 0.0 **** -0.24
32622 H 17.09312721281146 118.9032417831744 133.5376870203932 H 0.0 **** 0.06
32623 H 17.619840412443587 120.55972922279366 133.92294567327582 H 0.0 **** 0.06
32624 H 17.11985202208008 119.45716794691123 135.22927716820732 H 0.0 **** 0.06
32625 H 15.907526512282075 120.10509785510754 134.09918723411624 H 0.0 **** 0.06
32626 C 34.13920728886137 87.79458889661497 140.274823864616 C 0.0 **** -0.24
32627 H 33.78671102166163 87.0052194026933 139.6095757197633 H 0.0 **** 0.06
32628 H 35.1895625777787 87.62709464144912 140.51165349939475 H 0.0 **** 0.06
32629 H 33.55197583281773 87.78358235903993 141.192897892465 H 0.0 **** 0.06
32630 H 34.02618911813789 88.76133587567102 139.78271404859936 H 0.0 **** 0.06
32631 C 33.09872893231115 15.081844448228708 159.72984220126784 C 0.0 **** -0.24
32632 H 32.04069200961342 14.82240532551333 159.69616637666815 H 0.0 **** 0.06
32633 H 33.24641404697553 15.917739194017315 160.41362209003714 H 0.0 **** 0.06
32634 H 33.43588336204279 15.364853764662712 158.73178031574406 H 0.0 **** 0.06
32635 H 33.672338087079055 14.222098894657876 160.07614117168563 H 0.0 **** 0.06
32636 C 151.5712568323433 77.52872616026765 93.70710170061805 C 0.0 **** -0.24
32637 H 151.81020416466475 76.46529972154082 93.67079366368831 H 0.0 **** 0.06
32638 H 152.49405222564246 78.1088099469417 93.66554007211947 H 0.0 **** 0.06
32639 H 151.0434905054618 77.75116784181175 94.63450628237797 H 0.0 **** 0.06
32640 H 150.93961130762952 77.78749558953832 92.85772125120603 H 0.0 **** 0.06
32641 C 96.10469788249429 108.12569797048491 70.03511769642105 C 0.0 **** -0.24
32642 H 96.84100549600598 108.45191155495178 69.29987577503044 H 0.0 **** 0.06
32643 H 95.16650128760418 107.89237264102235 69.53166134630749 H 0.0 **** 0.06
32644 H 95.93906221937159 108.92284845263165 70.76037890146017 H 0.0 **** 0.06
32645 H 96.4734272217369 107.23775095456185 70.54897140897651 H 0.0 **** 0.06
32646 C 18.688475659110246 141.198470212423 93.4791738893726 C 0.0 **** -0.24
32647 H 19.258134507781854 142.0997090667213 93.24987230553398 H 0.0 **** 0.06
32648 H 19.070653495654987 140.75156044293306 94.39691492753349 H 0.0 **** 0.06
32649 H 18.787805478648345 140.4880243625492 92.65923907442821 H 0.0 **** 0.06
32650 H 17.637900162190142 141.457509020097 93.61033361871752 H 0.0 **** 0.06
32651 C 122.2158166326478 7.953313188246227 25.10328164498027 C 0.0 **** -0.24
32652 H 121.15207405002315 8.178893422714111 25.025376935498905 H 0.0 **** 0.06
32653 H 122.7946976583984 8.807239143690055 24.748647840082896 H 0.0 **** 0.06
32654 H 122.4476542076163 7.078428823739728 24.49617907316984 H 0.0 **** 0.06
32655 H 122.46720578297106 7.7502751338661255 26.144877025584023 H 0.0 **** 0.06
32656 C 32.83977055486031 93.83692181119241 0.07507056054151917 C 0.0 **** -0.24
32657 H 32.14891142407245 93.4176636170024 0.8061335306435069 H 0.0 **** 0.06
32658 H 33.2868324777624 94.7463187299063 0.47735871020654486 H 0.0 **** 0.06
32659 H 32.29854131921755 94.0725597006326 -0.8421609291729055 H 0.0 **** 0.06
32660 H 33.62400738517931 93.11117225302034 -0.14166210225374698 H 0.0 **** 0.06
32661 C 23.83296913922527 146.09805069643312 147.01818769202436 C 0.0 **** -0.24
32662 H 22.839197159253274 145.6676704856033 147.1469588874797 H 0.0 **** 0.06
32663 H 24.546068486787476 145.3051669092261 146.79399702246224 H 0.0 **** 0.06
32664 H 24.130334334781594 146.60560433683855 147.9355845990173 H 0.0 **** 0.06
32665 H 23.814980416429762 146.81412348888665 146.19664462249438 H 0.0 **** 0.06
32666 C 12.146260212075958 70.91529521753881 79.24765637514787 C 0.0 **** -0.24
32667 H 11.679137385063314 69.93955451206597 79.38130216468426 H 0.0 **** 0.06
32668 H 13.058456707901058 70.8029766726579 78.66047071820404 H 0.0 **** 0.06
32669 H 12.391483055382963 71.33750595813558 80.22267726339376 H 0.0 **** 0.06
32670 H 11.457943469769816 71.58011350788206 78.726314315981 H 0.0 **** 0.06
32671 C 81.06531749528627 29.594313600175497 78.19624366324496 C 0.0 **** -0.24
32672 H 80.6533717543147 28.6572786377219 78.57154495036065 H 0.0 **** 0.06
32673 H 80.67698562198932 30.424049139772876 78.78735969574927 H 0.0 **** 0.06
32674 H 80.77821835237526 29.72546824564776 77.15291993662959 H 0.0 **** 0.06
32675 H 82.15252015331599 29.56951980232367 78.27344805714085 H 0.0 **** 0.06
32676 C 61.44314352022232 79.87494544395258 28.68616502978015 C 0.0 **** -0.24
32677 H 61.215392325875996 79.49414122932279 27.68977632706156 H 0.0 **** 0.06
32678 H 61.683202980603625 79.04168479680573 29.3469827211987 H 0.0 **** 0.06
32679 H 60.57767389788239 80.41008233808185 29.076540085582423 H 0.0 **** 0.06
32680 H 62.29502123174183 80.55180032500024 28.629927524620925 H 0.0 **** 0.06
32681 C 75.95111088311396 72.71068872217086 154.91851729637338 C 0.0 **** -0.24
32682 H 75.41356586766682 72.82613408490477 155.85882550701174 H 0.0 **** 0.06
32683 H 75.3673305049075 73.15214046685281 154.10948284294335 H 0.0 **** 0.06
32684 H 76.10784437769894 71.6515903733395 154.71677210934416 H 0.0 **** 0.06
32685 H 76.9158448460318 73.21456791761676 154.98751752293353 H 0.0 **** 0.06
32686 C 108.6061357655507 140.99235448198084 87.87673156276713 C 0.0 **** -0.24
32687 H 109.0045794971056 140.1455905771518 87.31772320608594 H 0.0 **** 0.06
32688 H 107.96634277711178 141.58810765176375 87.2247522795703 H 0.0 **** 0.06
32689 H 109.42998668888225 141.607527256874 88.23947939354159 H 0.0 **** 0.06
32690 H 108.0246916166158 140.6279327148724 88.72301833593656 H 0.0 **** 0.06
32691 C 34.58900043749017 9.633834536662512 74.24211137848594 C 0.0 **** -0.24
32692 H 35.38516383719002 10.33675583503367 73.99527870381203 H 0.0 **** 0.06
32693 H 34.74019987160746 9.255771683730103 75.25408821627188 H 0.0 **** 0.06
32694 H 34.60664724221678 8.803579843058927 73.53642265410701 H 0.0 **** 0.06
32695 H 33.62656266863682 10.14116503576367 74.18345874208917 H 0.0 **** 0.06
32696 C 26.74528644685364 26.56113486187641 36.452279558493274 C 0.0 **** -0.24
32697 H 26.17573863968596 27.27945321919097 35.86128722762041 H 0.0 **** 0.06
32698 H 26.750848354633774 26.873559088260947 37.49613443290309 H 0.0 **** 0.06
32699 H 27.768990980161476 26.514774969716967 36.07968102068733 H 0.0 **** 0.06
32700 H 26.284312626475213 25.57710958880648 36.36931425111044 H 0.0 **** 0.06
32701 C 35.1595292109278 54.832176449792826 151.17864879984822 C 0.0 **** -0.24
32702 H 36.06408128843594 54.4090359826351 151.61659008448495 H 0.0 **** 0.06
32703 H 34.30928962113856 54.19041446516347 151.40900513843928 H 0.0 **** 0.06
32704 H 35.27863256102334 54.904315900497565 150.0974924035807 H 0.0 **** 0.06
32705 H 34.98702515210569 55.826539640907214 151.59277572186605 H 0.0 **** 0.06
32706 C 95.04614356737707 40.13520105119673 88.65469105033625 C 0.0 **** -0.24
32707 H 94.87726422178082 40.73547650125295 87.7598441070779 H 0.0 **** 0.06
32708 H 96.04431389229646 39.70001333951447 88.61668465570239 H 0.0 **** 0.06
32709 H 94.303902068326 39.33843690343704 88.70185355819382 H 0.0 **** 0.06
32710 H 94.95764248112759 40.76667658259066 89.53776410273761 H 0.0 **** 0.06
32711 C 2.7750165183299984 117.9261619038989 52.99662638039524 C 0.0 **** -0.24
32712 H 2.4874491914432753 118.09004767460101 54.035327180991715 H 0.0 **** 0.06
32713 H 1.9298669487768052 118.15151332772581 52.346091368701764 H 0.0 **** 0.06
32714 H 3.071491239905697 116.88627096719546 52.861295602212465 H 0.0 **** 0.06
32715 H 3.6114209189883653 118.57853269954614 52.745214591746105 H 0.0 **** 0.06
32716 C 134.19099176499287 110.08900927042518 22.940104270751704 C 0.0 **** -0.24
32717 H 133.9043177934296 109.9782757811582 21.894186017281356 H 0.0 **** 0.06
32718 H 133.310240782593 109.97444228657244 23.57209317399179 H 0.0 **** 0.06
32719 H 134.62350929149014 111.07689383173863 23.09470861128227 H 0.0 **** 0.06
32720 H 134.92574052548662 109.32601580586365 23.197236705097737 H 0.0 **** 0.06
32721 C 70.69592501630143 135.35389936014622 101.93088585433864 C 0.0 **** -0.24
32722 H 70.37655673971881 135.67006970281778 102.92431078702899 H 0.0 **** 0.06
32723 H 70.48953575320081 136.1486659034178 101.2141415025801 H 0.0 **** 0.06
32724 H 70.1505768573702 134.45497530430606 101.64361632934435 H 0.0 **** 0.06
32725 H 71.7647198722405 135.14298327445437 101.94304241743848 H 0.0 **** 0.06
32726 C 37.07603712460377 14.608157320546638 4.310080967428121 C 0.0 **** -0.24
32727 H 37.723876578449165 13.736973117128194 4.208518139876773 H 0.0 **** 0.06
32728 H 36.083213231646425 14.368641147017478 3.9268517523123094 H 0.0 **** 0.06
32729 H 37.494055155684634 15.4394348253144 3.7424292359270694 H 0.0 **** 0.06
32730 H 37.00239560772991 14.885729831631373 5.361039220742228 H 0.0 **** 0.06
32731 C 9.675142530502391 114.35879833877314 50.69872868821298 C 0.0 **** -0.24
32732 H 9.432921156426012 115.3104569801643 51.172339824198644 H 0.0 **** 0.06
32733 H 9.771123693803062 113.58763965215834 51.4625295311961 H 0.0 **** 0.06
32734 H 10.615964378590562 114.45335898096377 50.1561502124288 H 0.0 **** 0.06
32735 H 8.880177133239293 114.08744945117596 50.004171526076206 H 0.0 **** 0.06
32736 C 16.63840068134082 156.87146767243675 102.580157711466 C 0.0 **** -0.24
32737 H 16.56163380337145 156.5527453014954 103.62028452584906 H 0.0 **** 0.06
32738 H 16.548770462729685 157.95625379168553 102.52453083967197 H 0.0 **** 0.06
32739 H 15.83890264391404 156.40984120257528 102.0002432683711 H 0.0 **** 0.06
32740 H 17.60314504305112 156.56384571195872 102.17716404927444 H 0.0 **** 0.06
32741 C 84.76579803390337 108.5554468095383 106.0600405594706 C 0.0 **** -0.24
32742 H 83.7216507633822 108.55110231755208 106.37444076489683 H 0.0 **** 0.06
32743 H 84.82273937890295 108.7791412021869 104.9945325245302 H 0.0 **** 0.06
32744 H 85.20697058113495 107.57685153005093 106.25048459845036 H 0.0 **** 0.06
32745 H 85.31071385025942 109.31543058025528 106.62025059555828 H 0.0 **** 0.06
32746 C 12.335912438361845 125.38399382717964 6.767499220965995 C 0.0 **** -0.24
32747 H 12.333751677480166 124.85838229761552 7.722238294145164 H 0.0 **** 0.06
32748 H 13.333495852792907 125.33777945967131 6.330402632975527 H 0.0 **** 0.06
32749 H 12.054839577773834 126.4251646322706 6.925762473436009 H 0.0 **** 0.06
32750 H 11.620978413855823 124.91284293881978 6.092775540585002 H 0.0 **** 0.06
32751 C 34.24501273465046 52.14726705860555 123.21831241322957 C 0.0 **** -0.24
32752 H 33.51709568110982 51.891700105497506 122.44782803744278 H 0.0 **** 0.06
32753 H 35.01978900942163 52.78231330982854 122.78921122898163 H 0.0 **** 0.06
32754 H 34.69630040858851 51.235841285466336 123.60809093556003 H 0.0 **** 0.06
32755 H 33.744619872982184 52.67995351204951 124.02748050844866 H 0.0 **** 0.06
32756 C 36.41746727229872 66.90826450625974 80.84422492049748 C 0.0 **** -0.24
32757 H 37.24753327306996 67.58206413031036 81.05964403919083 H 0.0 **** 0.06
32758 H 35.51483880899784 67.49075990215334 80.66146057227485 H 0.0 **** 0.06
32759 H 36.25723048441506 66.24593198373915 81.69524764190285 H 0.0 **** 0.06
32760 H 36.652476293658 66.31454495930558 79.96030651715236 H 0.0 **** 0.06
32761 C 7.251990811887637 70.54896789672574 158.11535686032732 C 0.0 **** -0.24
32762 H 7.019023321709874 71.1186298063381 157.21593076402337 H 0.0 **** 0.06
32763 H 6.620392531545789 70.89106172331651 158.9360153288169 H 0.0 **** 0.06
32764 H 8.300409837339082 70.69719766550656 158.37743202322713 H 0.0 **** 0.06
32765 H 7.069838227213182 69.49032656009769 157.93259803555333 H 0.0 **** 0.06
32766 C 111.15149329771674 157.08286418054837 115.08529861959263 C 0.0 **** -0.24
32767 H 111.88498316552793 156.40193990142416 115.51493514040149 H 0.0 **** 0.06
32768 H 111.45918371545469 157.35828362210623 114.07582913620809 H 0.0 **** 0.06
32769 H 111.08293531756522 157.9796665765404 115.70098451308431 H 0.0 **** 0.06
32770 H 110.17877614960386 156.59210995768694 115.04814343997353 H 0.0 **** 0.06
32771 C 79.32821535050925 3.415704050638965 159.8293219393463 C 0.0 **** -0.24
32772 H 80.25813486935368 3.7194184246077953 160.31049980269924 H 0.0 **** 0.06
32773 H 79.51657362597297 2.555534012118301 159.18504669380397 H 0.0 **** 0.06
32774 H 78.9438179222143 4.241413615774604 159.23027503257825 H 0.0 **** 0.06
32775 H 78.59656878878297 3.146505183302793 160.59046259947328 H 0.0 **** 0.06
32776 C 156.97140966234122 107.4502448127947 68.81340115558471 C 0.0 **** -0.24
32777 H 157.2568037835453 108.04374842491231 67.94497815587296 H 0.0 **** 0.06
32778 H 155.99603157482 106.99575316235052 68.63834746081791 H 0.0 **** 0.06
32779 H 156.91935666960305 108.09442592719262 69.69173939654749 H 0.0 **** 0.06
32780 H 157.713198965978 106.66907630332523 68.97945609574442 H 0.0 **** 0.06
32781 C 73.61245279767923 145.55814040617355 149.7445353799331 C 0.0 **** -0.24
32782 H 73.59020630590766 145.51710756376224 148.65636848072216 H 0.0 **** 0.06
32783 H 73.37785441377919 144.5735601676265 150.1502498562717 H 0.0 **** 0.06
32784 H 72.87534171708634 146.2805153580332 150.0961055145426 H 0.0 **** 0.06
32785 H 74.60509999029075 145.86136184472127 150.07723067951054 H 0.0 **** 0.06
32786 C 91.94787205028395 143.28057485490154 114.1848116329852 C 0.0 **** -0.24
32787 H 93.03053098387679 143.22256159682289 114.07499389570344 H 0.0 **** 0.06
32788 H 91.68077977708545 143.13079554996358 115.23082918922691 H 0.0 **** 0.06
32789 H 91.47984489163093 142.5081171326609 113.57500962673134 H 0.0 **** 0.06
32790 H 91.60240014882659 144.26088878355364 113.85756462684779 H 0.0 **** 0.06
32791 C 22.29466237450214 150.4453491369834 62.88116234171798 C 0.0 **** -0.24
32792 H 21.89711236227231 151.44459023624154 62.70693251505662 H 0.0 **** 0.06
32793 H 22.965064015551206 150.17430708596015 62.065098787151896 H 0.0 **** 0.06
32794 H 21.472470177917103 149.73077222035948 62.92846668419628 H 0.0 **** 0.06
32795 H 22.844126659643962 150.43223211734903 63.82222014339675 H 0.0 **** 0.06
32796 C 85.57931792623035 75.27428066224343 42.29805188913019 C 0.0 **** -0.24
32797 H 84.68154386922598 75.34103228142749 41.68292682715878 H 0.0 **** 0.06
32798 H 85.51207759974888 75.98991000865453 43.11734379463661 H 0.0 **** 0.06
32799 H 86.45475927007992 75.49966955818917 41.6890919948944 H 0.0 **** 0.06
32800 H 85.66799862454849 74.26616440189838 42.70255551795731 H 0.0 **** 0.06
32801 C 32.35697526312302 50.948553533700505 62.106209796314204 C 0.0 **** -0.24
32802 H 31.432396265177147 51.421379151136364 62.43684321370415 H 0.0 **** 0.06
32803 H 32.13642636354808 50.23418431429697 61.31240082230164 H 0.0 **** 0.06
32804 H 32.81920324497196 50.42813208770818 62.944684989807286 H 0.0 **** 0.06
32805 H 33.04120237506311 51.709842542397396 61.73002607148379 H 0.0 **** 0.06
32806 C 136.45370226809445 33.05965346337648 16.08597684502891 C 0.0 **** -0.24
32807 H 135.61013217413597 32.37595227878139 16.182656997099798 H 0.0 **** 0.06
32808 H 136.59394347296876 33.59790335947277 17.022616192167504 H 0.0 **** 0.06
32809 H 136.25423468739865 33.77179710371763 15.284267406944423 H 0.0 **** 0.06
32810 H 137.35487829686951 32.49347891997431 15.851895687590456 H 0.0 **** 0.06
32811 C 42.12197195492533 84.17494289784206 75.62833890309994 C 0.0 **** -0.24
32812 H 42.71395028168648 84.94480800187516 76.12176690480311 H 0.0 **** 0.06
32813 H 41.1297983379757 84.13358829194216 76.0794012167364 H 0.0 **** 0.06
32814 H 42.61341051277127 83.20884317845795 75.74269504423998 H 0.0 **** 0.06
32815 H 42.03005334878853 84.41193925176404 74.56840043625938 H 0.0 **** 0.06
32816 C 11.627401632554523 101.55809229259631 66.10629645505219 C 0.0 **** -0.24
32817 H 12.089175378211877 101.32058768954758 67.064514289832 H 0.0 **** 0.06
32818 H 11.189136830656281 102.55492089508229 66.15183268216094 H 0.0 **** 0.06
32819 H 10.848329866967276 100.82781083927529 65.88716853738765 H 0.0 **** 0.06
32820 H 12.383821300430014 101.52896616029096 65.32116152955882 H 0.0 **** 0.06
32821 C 58.71050359485213 108.65872048169706 49.9577569392426 C 0.0 **** -0.24
32822 H 58.08776274145025 108.12204760424663 49.24181216690674 H 0.0 **** 0.06
32823 H 58.074142586305356 109.21839238539974 50.64418167734776 H 0.0 **** 0.06
32824 H 59.364597156764134 109.3478070114792 49.42438352934343 H 0.0 **** 0.06
32825 H 59.31333219976618 107.94640347169295 50.52109254751876 H 0.0 **** 0.06
32826 C 53.17973967763895 123.04139860481354 25.69212321246016 C 0.0 **** -0.24
32827 H 52.44600163215317 122.80364386786223 24.92209073657 H 0.0 **** 0.06
32828 H 52.8805019456526 123.95421608741233 26.208862924820778 H 0.0 **** 0.06
32829 H 54.15562541763158 123.18912886192703 25.229815259257748 H 0.0 **** 0.06
32830 H 53.23635688554468 122.22047850287794 26.406597507604346 H 0.0 **** 0.06
32831 C 48.78985625086682 111.85411238014512 66.48114716494445 C 0.0 **** -0.24
32832 H 48.0092284209081 111.77124703649304 65.72456048851211 H 0.0 **** 0.06
32833 H 49.752056755417044 112.01436140898738 65.99405342257444 H 0.0 **** 0.06
32834 H 48.82713785952558 110.9350345971344 67.06607363065007 H 0.0 **** 0.06
32835 H 48.5710684525896 112.69463073196545 67.13911800792675 H 0.0 **** 0.06
32836 C 20.391973199025472 134.79403314789502 4.75478095985352 C 0.0 **** -0.24
32837 H 21.114783833620933 135.07714549441982 3.9890178967651195 H 0.0 **** 0.06
32838 H 19.383685587170895 134.86171156248713 4.346201002332862 H 0.0 **** 0.06
32839 H 20.484203467076583 135.4665766375661 5.607297043604717 H 0.0 **** 0.06
32840 H 20.586593778513155 133.7709895319449 5.076775444332043 H 0.0 **** 0.06
32841 C 30.129880903173145 77.35906624608063 30.27247680895482 C 0.0 **** -0.24
32842 H 29.545710589573837 78.26800695577248 30.415094047714888 H 0.0 **** 0.06
32843 H 29.46777446290352 76.49339719223224 30.301147727814254 H 0.0 **** 0.06
32844 H 30.871750005085183 77.2754246905831 31.067339824852894 H 0.0 **** 0.06
32845 H 30.634142854019977 77.40005037434878 29.307101215591672 H 0.0 **** 0.06
32846 C 49.43367589768144 58.471100132912056 98.94190921801862 C 0.0 **** -0.24
32847 H 49.2353308293292 58.313976409804354 97.88097506789097 H 0.0 **** 0.06
32848 H 49.876783468409286 57.568865553741375 99.36509870492182 H 0.0 **** 0.06
32849 H 48.49929704623915 58.69435695563868 99.45636756723343 H 0.0 **** 0.06
32850 H 50.12384060558111 59.306303377432414 99.06174692814255 H 0.0 **** 0.06
32851 C 34.04449321153521 100.84525218524595 54.809811682012764 C 0.0 **** -0.24
32852 H 34.70595865663782 99.98069563378786 54.85916013571335 H 0.0 **** 0.06
32853 H 34.63326571555476 101.74402556741092 54.626761968947676 H 0.0 **** 0.06
32854 H 33.509183736090506 100.94737789260753 55.754769890888724 H 0.0 **** 0.06
32855 H 33.32797696557779 100.70855470044427 54.00038589963836 H 0.0 **** 0.06
32856 C 48.34907390121862 42.21384395388405 157.52397757364463 C 0.0 **** -0.24
32857 H 48.00972137584158 41.17846079012979 157.55946607562618 H 0.0 **** 0.06
32858 H 47.92536198851096 42.704086702237305 156.64626965914812 H 0.0 **** 0.06
32859 H 49.437193978504325 42.23764588015163 157.46402739814005 H 0.0 **** 0.06
32860 H 48.022766347880804 42.73327273228075 158.42420140024046 H 0.0 **** 0.06
32861 C 111.46256163198467 95.37048401217533 122.89605698606749 C 0.0 **** -0.24
32862 H 112.44167154580231 95.77714350729087 122.64388110879503 H 0.0 **** 0.06
32863 H 110.70498264757072 96.14421034849948 122.77513359065267 H 0.0 **** 0.06
32864 H 111.46851165804839 95.0243180887885 123.92922085602635 H 0.0 **** 0.06
32865 H 111.23648057339085 94.53412147629035 122.23442723502117 H 0.0 **** 0.06
32866 C 33.09940571769667 1.9691758790183158 135.97278033325495 C 0.0 **** -0.24
32867 H 32.693954910271174 1.7400757909976363 134.98662228960987 H 0.0 **** 0.06
32868 H 34.183007494932866 1.8540918998426363 135.95602591841936 H 0.0 **** 0.06
32869 H 32.671976622758905 1.2873854845027992 136.70883747724807 H 0.0 **** 0.06
32870 H 32.84702011649688 2.9955896176606913 136.239437806828 H 0.0 **** 0.06
32871 C 145.512173232142 97.05193767704264 146.1229390614776 C 0.0 **** -0.24
32872 H 144.54289887392048 96.5918425045358 145.92474830035874 H 0.0 **** 0.06
32873 H 146.24655282962485 96.66966798015673 145.41331495750052 H 0.0 **** 0.06
32874 H 145.82737591740002 96.80988320338378 147.13769949734913 H 0.0 **** 0.06
32875 H 145.429522416099 98.13254881062585 146.01498898398947 H 0.0 **** 0.06
32876 C 60.85149923552511 152.46731535694354 76.58438612929693 C 0.0 **** -0.24
32877 H 61.73369403299159 152.80299898727236 76.03908740237163 H 0.0 **** 0.06
32878 H 60.32398212301963 153.3312599685212 76.98808805695688 H 0.0 **** 0.06
32879 H 61.157171284367664 151.81317145528635 77.40142054351094 H 0.0 **** 0.06
32880 H 60.19294335628793 151.92096250018523 75.90878152456219 H 0.0 **** 0.06
32881 C 129.35542378049172 36.13247396722062 106.68377234789872 C 0.0 **** -0.24
32882 H 128.52141484615905 35.44281263845809 106.81433348081114 H 0.0 **** 0.06
32883 H 129.6846847460447 36.10922383966435 105.64423612971896 H 0.0 **** 0.06
32884 H 130.17864814987928 35.834106298722915 107.33316840428486 H 0.0 **** 0.06
32885 H 129.03630373475778 37.142152360730464 106.9419288680327 H 0.0 **** 0.06
32886 C 23.541696707560845 57.31582684315799 103.92099089158975 C 0.0 **** -0.24
32887 H 23.007739872545358 56.60694794962984 103.28705894697123 H 0.0 **** 0.06
32888 H 24.5903447250748 57.34809257967936 103.62598393849859 H 0.0 **** 0.06
32889 H 23.46555557539847 57.00041619167851 104.96123340332207 H 0.0 **** 0.06
32890 H 23.100914108113045 58.30613295607378 103.80865503824884 H 0.0 **** 0.06
32891 C 98.75629999853695 73.90713511860119 45.99324236547207 C 0.0 **** -0.24
32892 H 98.9489714554609 73.90673042042016 47.06550836084524 H 0.0 **** 0.06
32893 H 97.76243807417214 73.50129154499616 45.80262141637104 H 0.0 **** 0.06
32894 H 99.50306264645883 73.29290258683632 45.48932786523845 H 0.0 **** 0.06
32895 H 98.80988036698619 74.92777330969896 45.615004782921645 H 0.0 **** 0.06
32896 C 161.48350102390162 120.28692448913418 29.01085240736853 C 0.0 **** -0.24
32897 H 160.46987056798693 120.18258515489893 28.622940717149334 H 0.0 **** 0.06
32898 H 161.56805684550363 119.74697954819621 29.95484323423284 H 0.0 **** 0.06
32899 H 161.70348296942313 121.34219972615622 29.174213942821495 H 0.0 **** 0.06
32900 H 162.19066935788496 119.87455295191373 28.29203707621525 H 0.0 **** 0.06
32901 C 127.6284433948141 46.102617051190876 34.51479915897926 C 0.0 **** -0.24
32902 H 126.63795575741989 46.444040729672366 34.21234255309662 H 0.0 **** 0.06
32903 H 128.1854684189844 45.77879046045213 33.63641696708126 H 0.0 **** 0.06
32904 H 127.52774184963837 45.268593744670255 35.210377496070976 H 0.0 **** 0.06
32905 H 128.1600518933397 46.91957490192202 35.00233697169108 H 0.0 **** 0.06
32906 C 21.863480644439562 148.9849268629757 126.1305838886793 C 0.0 **** -0.24
32907 H 22.365368421334438 149.58539718823133 126.88931829857162 H 0.0 **** 0.06
32908 H 21.401795798261844 148.1167852904583 126.60285629095588 H 0.0 **** 0.06
32909 H 22.59017555873683 148.65223857407642 125.39034486094363 H 0.0 **** 0.06
32910 H 21.094899917542932 149.58435616471422 125.64211889475112 H 0.0 **** 0.06
32911 C 14.008856005197103 149.87923852081883 93.7020660494045 C 0.0 **** -0.24
32912 H 14.102899372474234 149.5542299314809 94.7379575017514 H 0.0 **** 0.06
32913 H 13.021685845759144 149.61052905305746 93.32607781369228 H 0.0 **** 0.06
32914 H 14.773076210078514 149.3922274823176 93.09690362280605 H 0.0 **** 0.06
32915 H 14.136451402184676 150.96032253385505 93.64771879969973 H 0.0 **** 0.06
32916 C 144.465538763557 108.59951654430313 66.61372858217156 C 0.0 **** -0.24
32917 H 145.21358193867485 107.91369408405254 67.01141289947367 H 0.0 **** 0.06
32918 H 144.26359629880199 108.35381067966418 65.57121348802275 H 0.0 **** 0.06
32919 H 144.8373392579133 109.62200061423727 66.68068810555195 H 0.0 **** 0.06
32920 H 143.54607669784843 108.50906503091448 67.19311957716495 H 0.0 **** 0.06
32921 C 32.84629125160532 13.783865422068743 0.20059048562910675 C 0.0 **** -0.24
32922 H 31.967820159530106 14.073746682735873 0.7770219632612054 H 0.0 **** 0.06
32923 H 32.95676147198827 14.453042462436883 -0.653503956753628 H 0.0 **** 0.06
32924 H 32.726566490172246 12.759608196168188 -0.15145773642005622 H 0.0 **** 0.06
32925 H 33.73263539522466 13.84975931628719 0.8319168056255606 H 0.0 **** 0.06
32926 C 21.827377844521294 158.12903275023706 139.56607430561056 C 0.0 **** -0.24
32927 H 22.78180166373093 158.50968940443028 139.9298881911979 H 0.0 **** 0.06
32928 H 21.283890520391566 157.66553982095925 140.38966018508424 H 0.0 **** 0.06
32929 H 22.0055314606266 157.38872613904965 138.78578699784165 H 0.0 **** 0.06
32930 H 21.23951148233988 158.95134401682282 139.15986236906397 H 0.0 **** 0.06
32931 C 82.62199600825988 78.2119356853851 141.6576240260841 C 0.0 **** -0.24
32932 H 83.43443506408613 78.69982705403652 141.11827008301566 H 0.0 **** 0.06
32933 H 81.66688014850041 78.61295880417708 141.3148513861588 H 0.0 **** 0.06
32934 H 82.73173890908902 78.39854159149607 142.7259795810644 H 0.0 **** 0.06
32935 H 82.65389021729135 77.13906578429963 141.46969380223862 H 0.0 **** 0.06
32936 C 10.200428687869419 125.8029953325325 27.071595073266394 C 0.0 **** -0.24
32937 H 10.151153950655043 125.1794726123527 26.17827860782866 H 0.0 **** 0.06
32938 H 11.168002272356773 126.3034062427244 27.111932890953142 H 0.0 **** 0.06
32939 H 10.075747007465395 125.17993857954318 27.956450188601423 H 0.0 **** 0.06
32940 H 9.40572397931544 126.5489896456383 27.036928057047092 H 0.0 **** 0.06
32941 C 37.632390077220094 6.165386726495655 5.6631951416518405 C 0.0 **** -0.24
32942 H 38.345324791399605 6.855780602341525 6.11604202790619 H 0.0 **** 0.06
32943 H 38.16814034496791 5.312763644909495 5.2450092851818795 H 0.0 **** 0.06
32944 H 37.08660140320126 6.676422139008935 4.870145721764061 H 0.0 **** 0.06
32945 H 36.930997828259294 5.8181559573407355 6.422089450616454 H 0.0 **** 0.06
32946 C 152.60408083975926 134.25926831337918 4.868943262335108 C 0.0 **** -0.24
32947 H 152.3904852747529 133.25978816101707 4.49232387228767 H 0.0 **** 0.06
32948 H 153.47126702619266 134.22140278809397 5.528042775752965 H 0.0 **** 0.06
32949 H 151.7424282331292 134.6304922735712 5.423296395641728 H 0.0 **** 0.06
32950 H 152.81177590026385 134.926755084951 4.032155325460963 H 0.0 **** 0.06
32951 C 146.19643298288398 132.49039847199427 8.966725044642324 C 0.0 **** -0.24
32952 H 145.82100668170838 132.1754348887515 7.9937102177312624 H 0.0 **** 0.06
32953 H 147.2784027098343 132.35958973225965 8.999058633808751 H 0.0 **** 0.06
32954 H 145.7345837161916 131.8855330252719 9.748089204462836 H 0.0 **** 0.06
32955 H 145.95231219051811 133.54047979965478 9.128357679507111 H 0.0 **** 0.06
32956 C 88.88220713103487 22.266466261862732 3.596761864851999 C 0.0 **** -0.24
32957 H 88.47322169830848 22.703159870409813 4.507998096906874 H 0.0 **** 0.06
32958 H 88.08203371666515 22.121712551647413 2.871782770185746 H 0.0 **** 0.06
32959 H 89.34141870559962 21.305723404677558 3.8288281003096927 H 0.0 **** 0.06
32960 H 89.63416876910266 22.936278013607044 3.1794001829491094 H 0.0 **** 0.06
32961 C 149.10528032931705 52.86492533466489 13.082522564520573 C 0.0 **** -0.24
32962 H 149.73947440979975 52.04007755552465 13.405526944352559 H 0.0 **** 0.06
32963 H 149.70529020516614 53.59071640751078 12.533615174503844 H 0.0 **** 0.06
32964 H 148.66273329014751 53.34594957816141 13.955781806015736 H 0.0 **** 0.06
32965 H 148.3136482436292 52.4835551849193 12.438271621188086 H 0.0 **** 0.06
32966 C 141.5760166260218 100.97024804505301 62.67405416166095 C 0.0 **** -0.24
32967 H 141.6762580499866 101.89751356357687 62.11087023157623 H 0.0 **** 0.06
32968 H 141.277572499483 101.19760390976475 63.697621590077844 H 0.0 **** 0.06
32969 H 142.53204874261087 100.44592196384008 62.68190495239689 H 0.0 **** 0.06
32970 H 140.82039679558306 100.34004612859536 62.20615028212059 H 0.0 **** 0.06
32971 C 122.76804629390494 58.9444276334346 106.65091367952166 C 0.0 **** -0.24
32972 H 122.64693389572341 60.0268248299199 106.62275484352378 H 0.0 **** 0.06
32973 H 122.95808041942072 58.6261328603065 107.67617283646337 H 0.0 **** 0.06
32974 H 123.60889519237449 58.65648811961101 106.01941717043294 H 0.0 **** 0.06
32975 H 121.85874122538982 58.46738793060645 106.28518936824932 H 0.0 **** 0.06
32976 C 159.88867112307807 54.99913003100568 18.850504063242738 C 0.0 **** -0.24
32977 H 160.33755537308176 54.05732107555332 18.53547284783359 H 0.0 **** 0.06
32978 H 159.81458645650247 55.670009308020894 17.993771107345545 H 0.0 **** 0.06
32979 H 160.5097635565833 55.45855341226644 19.620115155045617 H 0.0 **** 0.06
32980 H 158.89261420662243 54.81074853916738 19.251677220799017 H 0.0 **** 0.06
32981 C 21.03003098695021 22.948884138004473 57.32369749678041 C 0.0 **** -0.24
32982 H 21.013303237521058 22.27868676845359 56.46421362502706 H 0.0 **** 0.06
32983 H 20.098746179281335 23.51464356740329 57.36194345293144 H 0.0 **** 0.06
32984 H 21.870307331757374 23.637901746879287 57.23023467815318 H 0.0 **** 0.06
32985 H 21.13969284190381 22.36512688699578 58.2376135780045 H 0.0 **** 0.06
32986 C 10.347173100130405 52.36823450684834 62.81760953069552 C 0.0 **** -0.24
32987 H 10.507037728977998 51.645453490480094 63.61831970861246 H 0.0 **** 0.06
32988 H 11.271051612920928 52.91708331740951 62.63545759262425 H 0.0 **** 0.06
32989 H 9.56122451768482 53.063857978726986 63.10843870613485 H 0.0 **** 0.06
32990 H 10.050469690036643 51.84311998670678 61.909266695582744 H 0.0 **** 0.06
32991 C 23.600165325536977 90.63449666170806 149.09924272323963 C 0.0 **** -0.24
32992 H 22.70380944239119 90.30141222543182 149.62300675775415 H 0.0 **** 0.06
32993 H 24.417559666127715 89.94228889829117 149.30241942991887 H 0.0 **** 0.06
32994 H 23.872780116105787 91.6312723514576 149.44578889960377 H 0.0 **** 0.06
32995 H 23.404643526015263 90.66343486026062 148.02728252604214 H 0.0 **** 0.06
32996 C 72.02214431680787 124.29402503560482 19.075397876125578 C 0.0 **** -0.24
32997 H 71.01679799278676 123.87695036889784 19.142861799289847 H 0.0 **** 0.06
32998 H 72.00968302776596 125.32719259552749 19.423764623806704 H 0.0 **** 0.06
32999 H 72.36007423680286 124.26372737438567 18.040329652348476 H 0.0 **** 0.06
33000 H 72.70019386317031 123.70967192856978 19.697564349974698 H 0.0 **** 0.06
33001 C 95.24112882383886 11.613067172786401 123.47443989327377 C 0.0 **** -0.24
33002 H 95.68510662031824 11.204794231469464 122.56688176384361 H 0.0 **** 0.06
33003 H 95.67923576052107 12.589248237658865 123.68601905746257 H 0.0 **** 0.06
33004 H 95.43529759650798 10.938395501529158 124.30867157660367 H 0.0 **** 0.06
33005 H 94.16579257277095 11.718755877367357 123.33624562453025 H 0.0 **** 0.06
33006 C 103.45817091139799 19.389073524891785 16.910516989266284 C 0.0 **** -0.24
33007 H 102.54871058981246 19.797088259696807 16.468061575085585 H 0.0 **** 0.06
33008 H 104.17463267582451 19.159857507819424 16.12132535790937 H 0.0 **** 0.06
33009 H 103.21892962905252 18.479383688510552 17.46034317588345 H 0.0 **** 0.06
33010 H 103.89005893766841 20.12289069340079 17.591776839021122 H 0.0 **** 0.06
33011 C 26.985144356794592 3.6498225296399767 108.01074868695048 C 0.0 **** -0.24
33012 H 27.2213562489826 4.540233506572605 108.59348369812125 H 0.0 **** 0.06
33013 H 27.897239054105512 3.0812295005401893 107.83048478467356 H 0.0 **** 0.06
33014 H 26.54538215385321 3.9458752964111454 107.05787731724118 H 0.0 **** 0.06
33015 H 26.27529283478094 3.033410076276084 108.56342164279064 H 0.0 **** 0.06
33016 C 162.4206316716926 129.13947955676804 151.84235624867003 C 0.0 **** -0.24
33017 H 162.74888001072094 129.274146662379 152.87256527001443 H 0.0 **** 0.06
33018 H 163.21245320083003 128.65722289176693 151.2692279656899 H 0.0 **** 0.06
33019 H 162.19391533484645 130.11130962507835 151.40297042579996 H 0.0 **** 0.06
33020 H 161.52630550725618 128.51543558715983 151.82478537872598 H 0.0 **** 0.06
33021 C 8.263405022377185 119.674031184439 52.34501239182697 C 0.0 **** -0.24
33022 H 7.845489514553975 120.52607912594482 52.881074689117895 H 0.0 **** 0.06
33023 H 9.339253181070404 119.80977189420827 52.22802051557636 H 0.0 **** 0.06
33024 H 7.797754768404786 119.60044442647677 51.36180960958626 H 0.0 **** 0.06
33025 H 8.07105274674359 118.76021738586613 52.90694369638669 H 0.0 **** 0.06
33026 C 78.87527932520612 32.111427958091014 6.215066222187865 C 0.0 **** -0.24
33027 H 78.88957786622524 31.02178088500318 6.232231755235702 H 0.0 **** 0.06
33028 H 79.72616157584008 32.49349145848015 6.780390710670176 H 0.0 **** 0.06
33029 H 77.94956408684664 32.46961010238209 6.664953642544802 H 0.0 **** 0.06
33030 H 78.93822047225893 32.4598138585402 5.184964051398268 H 0.0 **** 0.06
33031 C 67.75658374396431 31.338047875743108 154.93863914526418 C 0.0 **** -0.24
33032 H 67.8110367952358 30.35735574267882 155.41118931080973 H 0.0 **** 0.06
33033 H 67.43143460179874 32.07685040771381 155.67117563703846 H 0.0 **** 0.06
33034 H 67.04189477100756 31.30484165318358 154.1150397657703 H 0.0 **** 0.06
33035 H 68.73859916614555 31.612634868397762 154.5559741584865 H 0.0 **** 0.06
33036 C 0.6206268979252627 91.44137100871899 120.16961233222762 C 0.0 **** -0.24
33037 H 0.2001423411434473 92.09875045522048 119.40791036413157 H 0.0 **** 0.06
33038 H 0.02689091096544871 90.52841603966007 120.22904886659006 H 0.0 **** 0.06
33039 H 0.6059145639187591 91.94822793613969 121.1338734081709 H 0.0 **** 0.06
33040 H 1.6476428429367331 91.19051022545183 119.90615087030304 H 0.0 **** 0.06
33041 C 124.44455672541227 133.40582294936243 46.4953077392601 C 0.0 **** -0.24
33042 H 123.62850442025677 134.05946536039602 46.800547050460764 H 0.0 **** 0.06
33043 H 125.25938151721164 134.00682029670963 46.09039709125726 H 0.0 **** 0.06
33044 H 124.08889738352823 132.71335419849729 45.73171468857841 H 0.0 **** 0.06
33045 H 124.80183902588968 132.84310793642373 47.35732804414039 H 0.0 **** 0.06
33046 C 117.59005760996922 23.3445238314739 157.8168960518003 C 0.0 **** -0.24
33047 H 117.84960227031908 23.423326500735627 156.76126327501217 H 0.0 **** 0.06
33048 H 117.77635037638487 24.29961347496279 158.30794353603852 H 0.0 **** 0.06
33049 H 118.19873949691592 22.569619689648526 158.28333340067053 H 0.0 **** 0.06
33050 H 116.53561431736972 23.085381305901734 157.91281452327001 H 0.0 **** 0.06
33051 C 118.23551634240255 127.21563487785446 122.55136618304019 C 0.0 **** -0.24
33052 H 117.24577143565523 127.65703830889981 122.43224900463593 H 0.0 **** 0.06
33053 H 118.26705238219608 126.25156967677552 122.04351026925858 H 0.0 **** 0.06
33054 H 118.44620767192009 127.07577851838559 123.61132429493199 H 0.0 **** 0.06
33055 H 118.98252428516025 127.87951541380235 122.11668283685145 H 0.0 **** 0.06
33056 C 94.23865644837281 140.7047265185341 16.12104667984852 C 0.0 **** -0.24
33057 H 94.35532113629391 140.98761722253013 17.1671069311642 H 0.0 **** 0.06
33058 H 93.53365534602078 139.87599889684793 16.045542551887166 H 0.0 **** 0.06
33059 H 95.20389715924915 140.3984358175596 15.717979404586856 H 0.0 **** 0.06
33060 H 93.86239817196568 141.55614490436815 15.553840103048401 H 0.0 **** 0.06
33061 C 50.91148617158899 69.04059406987653 52.33023648244675 C 0.0 **** -0.24
33062 H 51.58916815290263 69.65370676221839 51.73511477081844 H 0.0 **** 0.06
33063 H 50.71903774059774 69.5342670018099 53.28385357276102 H 0.0 **** 0.06
33064 H 51.366298078593104 68.06688858346745 52.509494900213 H 0.0 **** 0.06
33065 H 49.97274156687729 68.91101448603199 51.7927157665315 H 0.0 **** 0.06
33066 C 2.1657088639429958 51.86683041252017 47.81856435396051 C 0.0 **** -0.24
33067 H 3.0797696341310257 52.46039334048413 47.865775303212004 H 0.0 **** 0.06
33068 H 1.8911315539572797 51.543662511023854 48.82288436066199 H 0.0 **** 0.06
33069 H 2.3322772917126713 50.994037654302645 47.187541688837285 H 0.0 **** 0.06
33070 H 1.3619831920493652 52.471113150910924 47.3982451142917 H 0.0 **** 0.06
33071 C 153.6896053466066 55.10449761283809 14.499154096355653 C 0.0 **** -0.24
33072 H 153.76596462823414 55.15548149625954 15.585444927755077 H 0.0 **** 0.06
33073 H 154.2937125239865 54.27492010888321 14.132361884930958 H 0.0 **** 0.06
33074 H 154.05046455237968 56.036449542235914 14.065961252770137 H 0.0 **** 0.06
33075 H 152.64885655676125 54.95043772143893 14.215526983569134 H 0.0 **** 0.06
33076 C 78.19239603828453 143.50617306614487 110.72943386836454 C 0.0 **** -0.24
33077 H 79.19689204023537 143.0882420627347 110.66301614490908 H 0.0 **** 0.06
33078 H 78.196487145694 144.35333353692084 111.41539251111703 H 0.0 **** 0.06
33079 H 77.50653298484166 142.7431721060924 111.09770858360747 H 0.0 **** 0.06
33080 H 77.8713952938224 143.83743491985098 109.74247392747071 H 0.0 **** 0.06
33081 C 43.23402084743756 16.187931821871985 48.611227136630845 C 0.0 **** -0.24
33082 H 43.19823897252566 15.70322241444731 49.58704951507501 H 0.0 **** 0.06
33083 H 42.237560518690515 16.18448282738302 48.166907609865206 H 0.0 **** 0.06
33084 H 43.92258289365299 15.647187567850835 47.96204163772673 H 0.0 **** 0.06
33085 H 43.57615165014883 17.21586025807943 48.72762504779958 H 0.0 **** 0.06
33086 C 41.62901282236915 25.725311475182707 119.15531077078083 C 0.0 **** -0.24
33087 H 41.1244081701405 25.566532150462905 120.10905768069736 H 0.0 **** 0.06
33088 H 41.47660477436524 24.856204338584178 118.5152940282012 H 0.0 **** 0.06
33089 H 42.6956984866369 25.86805542764489 119.32871987809202 H 0.0 **** 0.06
33090 H 41.21781841434395 26.610367519727504 118.6705543460127 H 0.0 **** 0.06
33091 C 106.0180210506631 27.291093396282662 32.054791719422695 C 0.0 **** -0.24
33092 H 106.26556056154925 27.823555384333986 31.13710209714236 H 0.0 **** 0.06
33093 H 105.23996326184124 27.834372537368296 32.59183429998262 H 0.0 **** 0.06
33094 H 106.90692255897795 27.213687820570954 32.680957308427764 H 0.0 **** 0.06
33095 H 105.66024683785639 26.29070157121754 31.808639930131164 H 0.0 **** 0.06
33096 C 29.675754148352567 87.75200402318274 57.669755784417646 C 0.0 **** -0.24
33097 H 29.991205493021347 88.74365064128664 57.994121765008686 H 0.0 **** 0.06
33098 H 30.481125392940477 87.28058230274213 57.10664605148867 H 0.0 **** 0.06
33099 H 28.792353241231524 87.8405412343874 57.037477481206224 H 0.0 **** 0.06
33100 H 29.437644502970386 87.14275412021307 58.54229073587402 H 0.0 **** 0.06
33101 C 150.19535553250137 144.96300021876363 47.47333923624251 C 0.0 **** -0.24
33102 H 149.52950574387603 145.82589998173987 47.515159831633355 H 0.0 **** 0.06
33103 H 151.22796098939943 145.3041594317756 47.408801036393015 H 0.0 **** 0.06
33104 H 149.9539495584251 144.36030851408063 46.597657371832895 H 0.0 **** 0.06
33105 H 150.06552925388002 144.36218095343963 48.37411792053052 H 0.0 **** 0.06
33106 C 158.85431179649873 83.83115576990224 2.3966307595007095 C 0.0 **** -0.24
33107 H 158.93561380880135 83.97938669811606 1.3199100785347895 H 0.0 **** 0.06
33108 H 157.98012488693433 84.36473867532476 2.771128313666111 H 0.0 **** 0.06
33109 H 159.75007337858324 84.21308795550308 2.884411234599476 H 0.0 **** 0.06
33110 H 158.74909758482147 82.76730271207467 2.6103490549196877 H 0.0 **** 0.06
33111 C 134.76927362763007 145.87030890838167 146.43740605538488 C 0.0 **** -0.24
33112 H 135.07474386709129 146.43346944498663 145.55595555873782 H 0.0 **** 0.06
33113 H 135.62998562294456 145.3416883169054 146.84695212605072 H 0.0 **** 0.06
33114 H 133.99963633494653 145.1501964775693 146.1594809181151 H 0.0 **** 0.06
33115 H 134.37275969060923 146.55446753380855 147.18722570804601 H 0.0 **** 0.06
33116 C 129.96066744906508 106.87852610853713 140.69733750546814 C 0.0 **** -0.24
33117 H 129.50193706085798 106.3669180293335 141.5443490198453 H 0.0 **** 0.06
33118 H 129.21672601389463 107.02141696598886 139.91342092282468 H 0.0 **** 0.06
33119 H 130.78484370225024 106.2778825838675 140.31256781408976 H 0.0 **** 0.06
33120 H 130.33841232547405 107.84890189458704 141.02111139218766 H 0.0 **** 0.06
33121 C 152.59865793696866 61.12059053089182 102.37810693476786 C 0.0 **** -0.24
33122 H 151.95097353189556 61.45037514761128 103.18956108129635 H 0.0 **** 0.06
33123 H 153.5753857654466 60.85144981156216 102.77978325768902 H 0.0 **** 0.06
33124 H 152.712118264575 61.92695843057241 101.65387602852002 H 0.0 **** 0.06
33125 H 152.15447903572175 60.25323952764434 101.88948826549262 H 0.0 **** 0.06
33126 C 104.93684525983986 109.3117461502705 133.77520162878938 C 0.0 **** -0.24
33127 H 104.36696907919998 108.57275835078613 134.33878218062688 H 0.0 **** 0.06
33128 H 105.88863550191132 109.49357412786142 134.27354263017088 H 0.0 **** 0.06
33129 H 104.37002528814173 110.24182857737296 133.72210091083258 H 0.0 **** 0.06
33130 H 105.11801577003394 108.9387576985198 132.76658785162277 H 0.0 **** 0.06
33131 C 75.32527780374991 119.53463104025019 93.48286485541985 C 0.0 **** -0.24
33132 H 75.229587147926 120.60304442040152 93.28512246335526 H 0.0 **** 0.06
33133 H 74.4901139030735 119.20354844870434 94.09920842765922 H 0.0 **** 0.06
33134 H 76.26216162477056 119.34572000001964 94.00725325188233 H 0.0 **** 0.06
33135 H 75.32006454683528 118.98925019311906 92.53955982257668 H 0.0 **** 0.06
33136 C 135.08359235052467 150.50512138024453 83.44693044981183 C 0.0 **** -0.24
33137 H 135.37230497559761 149.49324061488147 83.73253894877503 H 0.0 **** 0.06
33138 H 134.06685429901813 150.49467037718966 83.05294009841994 H 0.0 **** 0.06
33139 H 135.76672918402164 150.87497597430217 82.68235442340823 H 0.0 **** 0.06
33140 H 135.128538439816 151.15490531448762 84.32075053121874 H 0.0 **** 0.06
33141 C 33.39898548312024 55.59091987569917 72.22688278050092 C 0.0 **** -0.24
33142 H 32.45827887273998 56.07791545402711 72.48572494414991 H 0.0 **** 0.06
33143 H 33.19897328526926 54.73243514515525 71.58560596967244 H 0.0 **** 0.06
33144 H 33.8972792473885 55.25779441832384 73.13671495112968 H 0.0 **** 0.06
33145 H 34.04007192885186 56.29753570744538 71.69903420745128 H 0.0 **** 0.06
33146 C 141.17743801217532 157.8479128769157 55.32507069643384 C 0.0 **** -0.24
33147 H 141.00728364224102 156.77260781269734 55.26659521622625 H 0.0 **** 0.06
33148 H 140.645229033427 158.34462181969616 54.513790420446185 H 0.0 **** 0.06
33149 H 142.24433819879195 158.05207461179822 55.23898462564958 H 0.0 **** 0.06
33150 H 140.81174881235017 158.22117672688418 56.28242977654628 H 0.0 **** 0.06
33151 C 9.36166789203007 24.879264517033143 141.39130221829254 C 0.0 **** -0.24
33152 H 9.284690623693969 25.787406610579296 141.98872524905835 H 0.0 **** 0.06
33153 H 8.381777975311557 24.40527042520589 141.32410663665055 H 0.0 **** 0.06
33154 H 10.06581075307382 24.193751107136805 141.86143412721924 H 0.0 **** 0.06
33155 H 9.712487860311846 25.132082518805596 140.39042945768466 H 0.0 **** 0.06
33156 C 104.20897785994399 101.08988737790764 58.37141501393802 C 0.0 **** -0.24
33157 H 104.13936250541309 100.12435104845335 58.873015625147104 H 0.0 **** 0.06
33158 H 104.50496442156273 100.93970259637737 57.333277096145366 H 0.0 **** 0.06
33159 H 104.95277382267355 101.7081122903146 58.87546999286178 H 0.0 **** 0.06
33160 H 103.24047423993113 101.58789468189008 58.405301451356024 H 0.0 **** 0.06
33161 C 69.80777862738857 65.77619791190475 60.16408681812844 C 0.0 **** -0.24
33162 H 70.42083252925691 66.65806339263082 60.355774346455135 H 0.0 **** 0.06
33163 H 68.97630890985403 65.75305503989219 60.86913390759311 H 0.0 **** 0.06
33164 H 70.41461666836229 64.87891373602395 60.28629386291803 H 0.0 **** 0.06
33165 H 69.42054906669645 65.81778270259267 59.14580697322704 H 0.0 **** 0.06
33166 C 91.57387945905664 157.15857775833484 121.18036797088723 C 0.0 **** -0.24
33167 H 92.39155339864867 157.87880963882458 121.15965053299215 H 0.0 **** 0.06
33168 H 90.64300795998805 157.6749116726976 121.4149855298842 H 0.0 **** 0.06
33169 H 91.77367562358926 156.40465885091095 121.94217151926026 H 0.0 **** 0.06
33170 H 91.4882175293171 156.67821819384824 120.20636461453975 H 0.0 **** 0.06
33171 C 2.3102867168232777 0.03670392051569138 55.08676666637385 C 0.0 **** -0.24
33172 H 1.8224756720556456 -0.0313113906975957 56.05919463849273 H 0.0 **** 0.06
33173 H 2.6063539569624936 1.068557523670279 54.89981168898032 H 0.0 **** 0.06
33174 H 1.6186707590754494 -0.29057973114041147 54.31015373284748 H 0.0 **** 0.06
33175 H 3.193566983953808 -0.6022864249000293 55.07815399576384 H 0.0 **** 0.06
33176 C 104.47483842770697 70.92601446933855 56.04564635511508 C 0.0 **** -0.24
33177 H 104.90034222484144 71.12047653438464 57.03040870999803 H 0.0 **** 0.06
33178 H 103.40813622989685 71.14659150279886 56.06192546092086 H 0.0 **** 0.06
33179 H 104.62581683292922 69.87855909636528 55.78572020966419 H 0.0 **** 0.06
33180 H 104.96650423101062 71.55875466110479 55.30648165473497 H 0.0 **** 0.06
33181 C 13.937027391001664 69.30153826468776 19.58569305226939 C 0.0 **** -0.24
33182 H 13.592922133163675 70.03132090634344 20.318249336195322 H 0.0 **** 0.06
33183 H 14.845407528138544 68.82094232954856 19.950690267526852 H 0.0 **** 0.06
33184 H 14.14541821077541 69.80415526321397 18.64145194903267 H 0.0 **** 0.06
33185 H 13.163365644785252 68.54846078850251 19.43300153288368 H 0.0 **** 0.06
33186 C 93.53043197915898 81.3782654311403 138.1126894797953 C 0.0 **** -0.24
33187 H 92.9298119721176 81.30164748986833 137.20589171948293 H 0.0 **** 0.06
33188 H 94.08556268690987 82.3159245271727 138.10159197518536 H 0.0 **** 0.06
33189 H 94.22879779825595 80.54235746041535 138.15572329603458 H 0.0 **** 0.06
33190 H 92.87727806248989 81.35082282129021 138.9840026688167 H 0.0 **** 0.06
33191 C 43.50959801341787 40.07090732230324 141.88162249830026 C 0.0 **** -0.24
33192 H 42.57549510150113 39.56909131380138 142.137572401716 H 0.0 **** 0.06
33193 H 44.3223777504125 39.34421161530696 141.8797997144904 H 0.0 **** 0.06
33194 H 43.71729017991382 40.8483494890142 142.61626558965258 H 0.0 **** 0.06
33195 H 43.42134639765584 40.51969913768153 140.89233466942753 H 0.0 **** 0.06
33196 C 157.60989073318524 97.72633522271065 54.558654568464476 C 0.0 **** -0.24
33197 H 157.52206004282743 98.63113057004568 55.159498128337646 H 0.0 **** 0.06
33198 H 157.83962971666696 96.88091795071432 55.20831258293157 H 0.0 **** 0.06
33199 H 158.4090256889874 97.85165184671473 53.82857724455724 H 0.0 **** 0.06
33200 H 156.66889844210922 97.54170198716412 54.041229300712246 H 0.0 **** 0.06
33201 C 4.1500637455433775 107.7089957133586 19.053393394917407 C 0.0 **** -0.24
33202 H 4.846936503642041 107.36696904484563 18.288128096305456 H 0.0 **** 0.06
33203 H 4.69435174463203 108.26460543152757 19.81759905897468 H 0.0 **** 0.06
33204 H 3.660367005917351 106.84845709489713 19.510216416282276 H 0.0 **** 0.06
33205 H 3.3994339747479785 108.35474978838022 18.599321337738445 H 0.0 **** 0.06
33206 C 94.94046980833305 84.04144875719527 74.77426225950225 C 0.0 **** -0.24
33207 H 94.83116487078979 84.25203240821308 73.71033377669681 H 0.0 **** 0.06
33208 H 94.49435588129127 84.85024752271697 75.3525137274364 H 0.0 **** 0.06
33209 H 95.9995929633931 83.95932550777266 75.0207654133657 H 0.0 **** 0.06
33210 H 94.43812094034878 83.10337560921963 75.01272876234495 H 0.0 **** 0.06
33211 C 141.84802121605412 42.97407846170444 5.349476936765797 C 0.0 **** -0.24
33212 H 142.34548585684655 42.403347484417736 4.56491466519617 H 0.0 **** 0.06
33213 H 140.80913393784346 42.65260695528417 5.428325983332996 H 0.0 **** 0.06
33214 H 141.8829358367267 44.03608169192313 5.1037942058995895 H 0.0 **** 0.06
33215 H 142.35455845985987 42.80393434355574 6.299934131814041 H 0.0 **** 0.06
33216 C 23.20026445176302 76.1904241313608 145.98324315259262 C 0.0 **** -0.24
33217 H 23.726893320252543 75.2816746173703 146.27397705009892 H 0.0 **** 0.06
33218 H 23.72551585446115 76.66534121932241 145.15337832019196 H 0.0 **** 0.06
33219 H 23.164870961616884 76.87586012452066 146.83056757933943 H 0.0 **** 0.06
33220 H 22.185476283343775 75.93987226984476 145.6751432084734 H 0.0 **** 0.06
33221 C 62.04044788556007 133.8870597503761 134.9050555093536 C 0.0 **** -0.24
33222 H 62.38987558503436 133.78736430988369 135.93274026650738 H 0.0 **** 0.06
33223 H 62.80495182578625 133.512784277599 134.22480671137066 H 0.0 **** 0.06
33224 H 61.841959283158815 134.93609397587673 134.68910348649817 H 0.0 **** 0.06
33225 H 61.12516820356552 133.3097130058763 134.77597148639111 H 0.0 **** 0.06
33226 C 25.228773725966846 59.91011132700926 68.1752669275138 C 0.0 **** -0.24
33227 H 25.15924106763589 60.88539827358491 68.65760441753031 H 0.0 **** 0.06
33228 H 25.257036102181814 60.04243024081647 67.0933529653791 H 0.0 **** 0.06
33229 H 24.361252895232496 59.30849250801542 68.4462452600402 H 0.0 **** 0.06
33230 H 26.138203956894586 59.40687899552525 68.50392288460563 H 0.0 **** 0.06
33231 C 112.56502838346819 17.259620893272597 44.42909893956323 C 0.0 **** -0.24
33232 H 111.96358430937846 16.65092322882583 43.753077438666196 H 0.0 **** 0.06
33233 H 113.54816432656236 17.426671523201264 43.98837376622612 H 0.0 **** 0.06
33234 H 112.67687993267725 16.74128354754214 45.38095210886422 H 0.0 **** 0.06
33235 H 112.07151940141341 18.217035316037254 44.5914637046875 H 0.0 **** 0.06
33236 C 44.54791392866572 155.56572450685283 155.8027669430708 C 0.0 **** -0.24
33237 H 45.19692367553078 156.09293478807442 156.50300802012814 H 0.0 **** 0.06
33238 H 44.84185953901198 155.8087560709813 154.7818881649515 H 0.0 **** 0.06
33239 H 43.513957029697394 155.87142932190793 155.96660403027468 H 0.0 **** 0.06
33240 H 44.63889706812647 154.49099768682078 155.96211939788373 H 0.0 **** 0.06
33241 C 2.9317303735590485 112.32018492247411 15.667263936050261 C 0.0 **** -0.24
33242 H 2.743066548550985 111.40363657508593 16.225430503357927 H 0.0 **** 0.06
33243 H 3.1264588841680734 112.07550267137665 14.623274833147264 H 0.0 **** 0.06
33244 H 3.7970066333024874 112.83123392841941 16.089104848427013 H 0.0 **** 0.06
33245 H 2.057998001081671 112.97060330785385 15.731720097463835 H 0.0 **** 0.06
33246 C 149.08558507043486 145.92743717839875 29.516752262873098 C 0.0 **** -0.24
33247 H 149.99117830429802 145.44175348797296 29.153080559479662 H 0.0 **** 0.06
33248 H 148.9009701229576 145.62539372256623 30.548555045881244 H 0.0 **** 0.06
33249 H 148.2399213086829 145.63153754523256 28.894875984784704 H 0.0 **** 0.06
33250 H 149.20965405481644 147.00871225863312 29.470796845490526 H 0.0 **** 0.06
33251 C 132.72645922883376 130.58461462949276 12.334391406663315 C 0.0 **** -0.24
33252 H 131.88137499256078 130.87980824312456 11.7132543925716 H 0.0 **** 0.06
33253 H 132.81862093332214 131.27368640783766 13.174265908330398 H 0.0 **** 0.06
33254 H 133.63977340369917 130.60922827431546 11.740421520484915 H 0.0 **** 0.06
33255 H 132.56459720600984 129.5740578324993 12.710635380880035 H 0.0 **** 0.06
33256 C 66.67591711533592 127.75059386617181 6.755351034481862 C 0.0 **** -0.24
33257 H 65.85266073701797 127.36319324445898 7.356270808573129 H 0.0 **** 0.06
33258 H 66.40856685030957 127.70032887094607 5.699876676791973 H 0.0 **** 0.06
33259 H 67.56768996174273 127.1502861169827 6.933150434336824 H 0.0 **** 0.06
33260 H 66.87277465519037 128.78631650655944 7.03227625706063 H 0.0 **** 0.06
33261 C 85.98791497271657 122.81252534955564 123.96295794046227 C 0.0 **** -0.24
33262 H 85.27164604438688 122.06539039236927 124.30414560238532 H 0.0 **** 0.06
33263 H 86.85929309610171 122.80707176927467 124.61825581154994 H 0.0 **** 0.06
33264 H 85.52190211658804 123.79817166952495 123.98530157185792 H 0.0 **** 0.06
33265 H 86.29659008598775 122.57930191259936 122.94420804898456 H 0.0 **** 0.06
33266 C 15.40538170787979 121.30432098978542 110.22432032429239 C 0.0 **** -0.24
33267 H 14.57427516865878 120.62291767723548 110.40489797677986 H 0.0 **** 0.06
33268 H 15.762507045864965 121.70267791507666 111.17376758249748 H 0.0 **** 0.06
33269 H 15.070399422021211 122.12458936826954 109.5893120432743 H 0.0 **** 0.06
33270 H 16.21361472310339 120.76736398478411 109.72775570117923 H 0.0 **** 0.06
33271 C 40.99774636018053 126.43936632879223 110.83187715030417 C 0.0 **** -0.24
33272 H 41.39622049624221 126.73158983049245 109.86028122295298 H 0.0 **** 0.06
33273 H 41.61608099621189 125.64546732646994 111.25351986294967 H 0.0 **** 0.06
33274 H 39.97561316670192 126.07915991199559 110.71157355757401 H 0.0 **** 0.06
33275 H 41.00395710272838 127.29936188965098 111.50132386846954 H 0.0 **** 0.06
33276 C 49.17396573098826 100.58108803227358 43.28593992948487 C 0.0 **** -0.24
33277 H 49.337756169624114 99.51552181501307 43.124725199454204 H 0.0 **** 0.06
33278 H 48.211121650509355 100.73113354411899 43.77331396162266 H 0.0 **** 0.06
33279 H 49.18084303510942 101.09877470862003 42.326219608693066 H 0.0 **** 0.06
33280 H 49.96755537986921 100.9795692936354 43.918736924304625 H 0.0 **** 0.06
33281 C 155.41133557850134 50.46137442282702 48.592833641908214 C 0.0 **** -0.24
33282 H 155.00651475759634 49.5525911540075 48.149937645717955 H 0.0 **** 0.06
33283 H 154.77813457287556 50.773630718367315 49.424206238475335 H 0.0 **** 0.06
33284 H 155.44023282024094 51.251149175736145 47.84199301154911 H 0.0 **** 0.06
33285 H 156.42102011537958 50.27000411489411 48.95666795579751 H 0.0 **** 0.06
33286 C 50.31914725977654 69.86100662116581 114.21861231903893 C 0.0 **** -0.24
33287 H 49.74513065854808 69.9678193039656 113.29785129336312 H 0.0 **** 0.06
33288 H 49.63911982263592 69.68261906670278 115.05135382122143 H 0.0 **** 0.06
33289 H 50.88532175292558 70.77466093671939 114.40065654888349 H 0.0 **** 0.06
33290 H 51.00624322265769 69.02049201391793 114.12361140709038 H 0.0 **** 0.06
33291 C 122.31820476472436 145.25613013168385 64.7518199159963 C 0.0 **** -0.24
33292 H 122.23005693358917 146.0013911836885 65.5422481390965 H 0.0 **** 0.06
33293 H 121.50600531199723 144.53378523355514 64.84254918756342 H 0.0 **** 0.06
33294 H 123.2743093566751 144.74079443564952 64.84383615214107 H 0.0 **** 0.06
33295 H 122.26154938498024 145.7477683358361 63.78078701663537 H 0.0 **** 0.06
33296 C 53.74600539278288 3.1178626250435784 150.9707685639906 C 0.0 **** -0.24
33297 H 54.71599952381017 2.8444891290344643 151.38460323689804 H 0.0 **** 0.06
33298 H 53.29388469749479 2.2461032331522475 150.49730546214522 H 0.0 **** 0.06
33299 H 53.87770179147006 3.907517285294574 150.23012258050846 H 0.0 **** 0.06
33300 H 53.09785388688408 3.4757715507424223 151.77075961688377 H 0.0 **** 0.06
33301 C 35.30288108155938 45.64242537984998 28.858926205540712 C 0.0 **** -0.24
33302 H 36.060577232796135 45.974998783480956 28.15038101393955 H 0.0 **** 0.06
33303 H 34.33585398292007 45.58808935606626 28.357579934630934 H 0.0 **** 0.06
33304 H 35.24352547964247 46.348489809164505 29.686343722189463 H 0.0 **** 0.06
33305 H 35.569634884117434 44.65668422091464 29.239613245191975 H 0.0 **** 0.06
33306 C 154.43444975643948 57.56185607544646 139.4150261289172 C 0.0 **** -0.24
33307 H 154.65750460132645 56.499961436477776 139.31457141984347 H 0.0 **** 0.06
33308 H 155.24547184368905 58.14610284734289 138.97965415467172 H 0.0 **** 0.06
33309 H 154.3314902444684 57.81390503839931 140.47053573045096 H 0.0 **** 0.06
33310 H 153.5031181513564 57.78843152745516 138.8953657766321 H 0.0 **** 0.06
33311 C 19.51235304970956 118.4280906263173 108.68886038948833 C 0.0 **** -0.24
33312 H 19.750259891032698 117.51664625853365 108.14061833611359 H 0.0 **** 0.06
33313 H 18.664371737810484 118.92537121283857 108.21728368497196 H 0.0 **** 0.06
33314 H 20.3759022443669 119.09368267650402 108.67809519155165 H 0.0 **** 0.06
33315 H 19.260581747955513 118.17767846045192 109.7191874257392 H 0.0 **** 0.06
33316 C 21.12040955553769 73.92790651257422 1.7563108826953453 C 0.0 **** -0.24
33317 H 20.565914695073786 74.33199252356053 2.6034016734076886 H 0.0 **** 0.06
33318 H 21.105200801576842 74.64576948356802 0.9360357374716841 H 0.0 **** 0.06
33319 H 20.65793758111454 72.99542312177567 1.431983471729211 H 0.0 **** 0.06
33320 H 22.151245314216453 73.73837381527676 2.054270322437958 H 0.0 **** 0.06
33321 C 162.5338725854615 14.020197760502526 22.99359910919344 C 0.0 **** -0.24
33322 H 162.7143082716876 15.031633427715633 22.630558219390394 H 0.0 **** 0.06
33323 H 162.41905869284585 13.344991774266248 22.14454872285131 H 0.0 **** 0.06
33324 H 161.62508779130567 14.00591587497695 23.594119749817594 H 0.0 **** 0.06
33325 H 163.3780687225933 13.697022006148018 23.60284058452953 H 0.0 **** 0.06
33326 C 13.190190010153657 34.6798476450449 111.87024505044911 C 0.0 **** -0.24
33327 H 12.52739565373588 34.04826377825148 112.46251808103875 H 0.0 **** 0.06
33328 H 13.186485519777705 34.33918188748004 110.8349214440114 H 0.0 **** 0.06
33329 H 14.202195325668072 34.61797096049946 112.27077517717356 H 0.0 **** 0.06
33330 H 12.844162037612023 35.71207792186087 111.91578766575384 H 0.0 **** 0.06
33331 C 44.77495361965916 108.85583948401006 13.936036157802654 C 0.0 **** -0.24
33332 H 45.49561619741465 109.07946642003435 14.722080222762024 H 0.0 **** 0.06
33333 H 44.62370052295506 107.77723788479432 13.879300028818555 H 0.0 **** 0.06
33334 H 45.15288981152861 109.22009368522885 12.981296436325017 H 0.0 **** 0.06
33335 H 43.82751165600024 109.3443387022765 14.162496041340745 H 0.0 **** 0.06
33336 C 50.090585580618296 41.69016326517671 151.02064801620264 C 0.0 **** -0.24
33337 H 50.96694143318007 42.190836604650926 150.60750334330305 H 0.0 **** 0.06
33338 H 49.27216750773334 41.7394285991879 150.30129783098988 H 0.0 **** 0.06
33339 H 49.792194522760894 42.18422265730392 151.94527223626844 H 0.0 **** 0.06
33340 H 50.33109203022491 40.64704420948223 151.2262328949785 H 0.0 **** 0.06
33341 C 48.20303647025315 134.4568362936325 142.64534738685904 C 0.0 **** -0.24
33342 H 48.64804362405911 135.45105377670598 142.68233492866256 H 0.0 **** 0.06
33343 H 48.98635473836633 133.71218388902474 142.51044338956973 H 0.0 **** 0.06
33344 H 47.502358473186774 134.40369779040427 141.8111750152698 H 0.0 **** 0.06
33345 H 47.67155513391391 134.26246016128408 143.57774827177326 H 0.0 **** 0.06
33346 C 50.03165357719385 16.062956465382598 44.55323069984776 C 0.0 **** -0.24
33347 H 49.731212829137164 15.18689158346615 45.12798502590982 H 0.0 **** 0.06
33348 H 49.34011290147565 16.20536024154822 43.72155192923597 H 0.0 **** 0.06
33349 H 51.03970911692299 15.917004975275404 44.167189252477556 H 0.0 **** 0.06
33350 H 50.012006183680526 16.9430443610637 45.19611804302535 H 0.0 **** 0.06
33351 C 0.9354824951986203 26.327044223811157 149.34689530415358 C 0.0 **** -0.24
33352 H 0.28825791856430527 25.470256654374715 149.15914741963428 H 0.0 **** 0.06
33353 H 1.8664268637049517 26.206354912595792 148.79348270012088 H 0.0 **** 0.06
33354 H 1.1520337000229688 26.39205356976752 150.41314162349414 H 0.0 **** 0.06
33355 H 0.4339047702213321 27.238985901671995 149.02168299747808 H 0.0 **** 0.06
33356 C 137.69371645759352 92.34463119245817 115.81285123297499 C 0.0 **** -0.24
33357 H 138.57577529695862 92.46201317922726 115.18344633578869 H 0.0 **** 0.06
33358 H 137.86984615697682 92.82218995625638 116.77685943879374 H 0.0 **** 0.06
33359 H 137.49377057339865 91.2838432340231 115.96278253482228 H 0.0 **** 0.06
33360 H 136.83700831647917 92.81096208425441 115.32712858247794 H 0.0 **** 0.06
33361 C 119.90620713529299 47.34047564299033 151.9883885634859 C 0.0 **** -0.24
33362 H 119.08479744473314 47.81805304763657 151.45376363487145 H 0.0 **** 0.06
33363 H 119.50657418146216 46.582111766713695 152.66256556290142 H 0.0 **** 0.06
33364 H 120.44831665788524 48.08937989434773 152.5653569591164 H 0.0 **** 0.06
33365 H 120.58273419361257 46.87212935734897 151.27364543078897 H 0.0 **** 0.06
33366 C 19.97946136867853 19.19098801362742 115.46911328221213 C 0.0 **** -0.24
33367 H 19.957601461320067 18.82908511805789 116.49716790233276 H 0.0 **** 0.06
33368 H 18.969495570992564 19.449627348313868 115.15334660624481 H 0.0 **** 0.06
33369 H 20.37706841448373 18.41190251627603 114.8180101352585 H 0.0 **** 0.06
33370 H 20.616637126305584 20.073771800558518 115.40936616093774 H 0.0 **** 0.06
33371 C 154.21913453374043 54.555765618830875 49.51199520714289 C 0.0 **** -0.24
33372 H 154.5867443381583 53.544374491915775 49.33892622386281 H 0.0 **** 0.06
33373 H 153.17375271877418 54.514844851213425 49.81847557756237 H 0.0 **** 0.06
33374 H 154.30749066042267 55.13622966068978 48.59357724621265 H 0.0 **** 0.06
33375 H 154.80988998553033 55.02625452410305 50.29853768484293 H 0.0 **** 0.06
33376 C 82.12283776949818 29.139131013195367 74.13376996708598 C 0.0 **** -0.24
33377 H 82.24811544404031 28.057102155704 74.15870752040088 H 0.0 **** 0.06
33378 H 82.72395253431378 29.55506845923918 73.32403297633388 H 0.0 **** 0.06
33379 H 82.4471454479888 29.564691185383083 75.08313813043115 H 0.0 **** 0.06
33380 H 81.07246626904583 29.37928275052252 73.96680370703422 H 0.0 **** 0.06
33381 C 98.713095202423 56.63748104046698 31.364163840669107 C 0.0 **** -0.24
33382 H 98.95540915245485 55.57993758751205 31.468809191801824 H 0.0 **** 0.06
33383 H 98.34075971840596 57.020477618876185 32.31442736768474 H 0.0 **** 0.06
33384 H 97.94876616866361 56.76043741050667 30.597683132415824 H 0.0 **** 0.06
33385 H 99.60895469111986 57.18842731136357 31.076290838457396 H 0.0 **** 0.06
33386 C 126.96340165564993 2.924435820030027 160.24481776837624 C 0.0 **** -0.24
33387 H 126.02880084689235 2.457275081023994 159.93643652816044 H 0.0 **** 0.06
33388 H 127.26567170085917 2.5266048001374344 161.2143713783589 H 0.0 **** 0.06
33389 H 126.82237942437027 4.00217329325227 160.32245477504426 H 0.0 **** 0.06
33390 H 127.73677304310903 2.711249282467456 159.50690581422944 H 0.0 **** 0.06
33391 C 51.820964447791525 86.94598516421296 84.61981539389184 C 0.0 **** -0.24
33392 H 52.690917226579984 87.56559080501404 84.40241055216956 H 0.0 **** 0.06
33393 H 50.912275321998294 87.52871405209827 84.4666423173602 H 0.0 **** 0.06
33394 H 51.86670201885347 86.60652409496561 85.65476231194516 H 0.0 **** 0.06
33395 H 51.81590253142225 86.08258782168492 83.95446416036239 H 0.0 **** 0.06
33396 C 59.684842151063194 90.52037375677905 51.90240542143519 C 0.0 **** -0.24
33397 H 59.631491564876654 91.60840038622727 51.91391995983881 H 0.0 **** 0.06
33398 H 58.68723361492047 90.10987354394304 51.74210670084399 H 0.0 **** 0.06
33399 H 60.07520106414155 90.16568983513534 52.855503551000425 H 0.0 **** 0.06
33400 H 60.34417268157516 90.19803816672227 51.09702796390236 H 0.0 **** 0.06
33401 C 15.803555979050486 63.03520805745609 17.00932568135073 C 0.0 **** -0.24
33402 H 16.51787586544441 63.84406687287421 17.16366420305235 H 0.0 **** 0.06
33403 H 14.816786619266338 63.455159901686585 16.8153449530692 H 0.0 **** 0.06
33404 H 15.763206486060596 62.4111067489913 17.902786016407788 H 0.0 **** 0.06
33405 H 16.11667017571196 62.431628218350795 16.15808147473996 H 0.0 **** 0.06
33406 C 73.57825086354131 88.2343876259381 94.32389782591073 C 0.0 **** -0.24
33407 H 74.26314716573228 87.4141306853499 94.53711705669771 H 0.0 **** 0.06
33408 H 72.69652803854311 87.84633160976645 93.8126970026306 H 0.0 **** 0.06
33409 H 74.07498029693544 88.96658241800293 93.68755632745817 H 0.0 **** 0.06
33410 H 73.27659190080192 88.70879886264714 95.25816744940761 H 0.0 **** 0.06
33411 C 73.80780988432934 75.21324181430144 14.347965346270342 C 0.0 **** -0.24
33412 H 73.74304813046405 74.1259048065512 14.36771290338865 H 0.0 **** 0.06
33413 H 74.82435516897823 75.51215784644135 14.092681701403137 H 0.0 **** 0.06
33414 H 73.547830634913 75.60963348207684 15.330147778714746 H 0.0 **** 0.06
33415 H 73.11504569720262 75.6049912180652 13.603319097958604 H 0.0 **** 0.06
33416 C 36.15092020003556 76.04417884537291 74.60310854414988 C 0.0 **** -0.24
33417 H 36.0947099004992 74.99344641901602 74.31800744319688 H 0.0 **** 0.06
33418 H 37.19470595902294 76.35905147186564 74.62837531342274 H 0.0 **** 0.06
33419 H 35.707590252954674 76.17642067018896 75.59097521949325 H 0.0 **** 0.06
33420 H 35.60678649347631 76.64703664016345 73.87692275028454 H 0.0 **** 0.06
33421 C 147.7670058311373 26.130808762332094 90.22500162681035 C 0.0 **** -0.24
33422 H 148.69061376074924 26.685940621475993 90.38893718457209 H 0.0 **** 0.06
33423 H 146.9163460387579 26.75031889200858 90.50809693997746 H 0.0 **** 0.06
33424 H 147.77531820480385 25.225438254579387 90.83240925135337 H 0.0 **** 0.06
33425 H 147.68701125724027 25.862070182101434 89.1716183615243 H 0.0 **** 0.06
33426 C 145.55965403978007 19.406971986702487 159.3087090366223 C 0.0 **** -0.24
33427 H 145.91893729283038 18.39442531054773 159.49567605108746 H 0.0 **** 0.06
33428 H 146.3632277748947 20.003582227681434 158.87447823077764 H 0.0 **** 0.06
33429 H 145.23959106276692 19.857721742652345 160.24777569285055 H 0.0 **** 0.06
33430 H 144.71794056046812 19.371373636932752 158.6173711887409 H 0.0 **** 0.06
33431 C 58.68936082129221 48.586226646006196 84.40456068746872 C 0.0 **** -0.24
33432 H 57.94471001342656 48.95634120544324 85.10966724688132 H 0.0 **** 0.06
33433 H 59.673697589603904 48.958604816384806 84.68869883559711 H 0.0 **** 0.06
33434 H 58.4445247057328 48.93484661096426 83.40158649417732 H 0.0 **** 0.06
33435 H 58.69403131407765 47.49666773564795 84.42060445917397 H 0.0 **** 0.06
33436 C 77.5004379609256 106.11693598102374 144.5223966525985 C 0.0 **** -0.24
33437 H 77.55615226492108 107.0917594107267 145.00667864426865 H 0.0 **** 0.06
33438 H 78.22684334620868 106.07358890161504 143.71033807747935 H 0.0 **** 0.06
33439 H 76.49788697799292 105.96653777327805 144.12240071481006 H 0.0 **** 0.06
33440 H 77.72271790341358 105.33659883860821 145.25035230496962 H 0.0 **** 0.06
33441 C 113.5956010344587 60.97393810308678 27.09697422927689 C 0.0 **** -0.24
33442 H 113.25626455516158 59.937645206082976 27.10644379754219 H 0.0 **** 0.06
33443 H 114.15738877442243 61.179607437241714 28.0087179151377 H 0.0 **** 0.06
33444 H 112.7323819385768 61.6373147734692 27.04373852672851 H 0.0 **** 0.06
33445 H 114.23476353897956 61.138685627972635 26.23008128678071 H 0.0 **** 0.06
33446 C 48.23982441824741 32.45114546407795 49.580095154907895 C 0.0 **** -0.24
33447 H 47.453810863939 32.638216589358066 50.31205277437962 H 0.0 **** 0.06
33448 H 47.795157671858505 32.34255787708231 48.59029410902724 H 0.0 **** 0.06
33449 H 48.771307164740634 31.536801524645945 49.842838545555864 H 0.0 **** 0.06
33450 H 48.93751776952219 33.28861572180436 49.57557714124549 H 0.0 **** 0.06
33451 C 160.12613836796186 47.291075134217905 82.26598095966392 C 0.0 **** -0.24
33452 H 159.66551347903751 48.015305623025 82.93815116030925 H 0.0 **** 0.06
33453 H 160.96186443876596 46.80669187121555 82.77190849691323 H 0.0 **** 0.06
33454 H 160.4869637206136 47.801757658358284 81.37338459579541 H 0.0 **** 0.06
33455 H 159.38825163601223 46.539551636965754 81.98226012876074 H 0.0 **** 0.06
33456 C 105.4585362640974 119.53923547374029 91.28208523931623 C 0.0 **** -0.24
33457 H 104.87269635535475 118.77230681268577 91.78895592522399 H 0.0 **** 0.06
33458 H 105.80162075905304 119.15880783814305 90.32010567025273 H 0.0 **** 0.06
33459 H 106.31901166707803 119.80359093081165 91.89672263522246 H 0.0 **** 0.06
33460 H 104.84053738025926 120.4233118693079 91.12388544310242 H 0.0 **** 0.06
33461 C 140.35881338729857 33.38516943862169 112.47714363419047 C 0.0 **** -0.24
33462 H 140.32974704619008 32.494100873200864 111.85036392541753 H 0.0 **** 0.06
33463 H 140.1625760068154 33.10678004916309 113.51333046206108 H 0.0 **** 0.06
33464 H 139.6003740020633 34.09177909692306 112.13983909574924 H 0.0 **** 0.06
33465 H 141.34378476202627 33.84732067529029 112.40496671776052 H 0.0 **** 0.06
33466 C 110.41646394069485 92.0337671852648 48.633447634956426 C 0.0 **** -0.24
33467 H 109.79122056046941 92.30177929454032 49.48407447856293 H 0.0 **** 0.06
33468 H 111.38581056565158 92.5229378449429 48.72586529007499 H 0.0 **** 0.06
33469 H 109.93273424237222 92.35606142093704 47.71105787044054 H 0.0 **** 0.06
33470 H 110.55563993492797 90.9528563909885 48.61113715786047 H 0.0 **** 0.06
33471 C 56.64139968623354 102.12556612294543 150.76405953636464 C 0.0 **** -0.24
33472 H 56.24726873305589 101.10860118462813 150.76413563192892 H 0.0 **** 0.06
33473 H 56.34793598682231 102.62824313442502 149.8419186757829 H 0.0 **** 0.06
33474 H 57.7287211791533 102.09283337023646 150.83063568729978 H 0.0 **** 0.06
33475 H 56.241875824936315 102.67034371627818 151.61858505915913 H 0.0 **** 0.06
33476 C 112.78291645990896 32.497886082980244 122.29641859877688 C 0.0 **** -0.24
33477 H 113.7705349707852 32.95885074322041 122.28022860004717 H 0.0 **** 0.06
33478 H 112.02235988462894 33.27428998784791 122.38480161266966 H 0.0 **** 0.06
33479 H 112.71233219261268 31.821219046658484 123.1475621912688 H 0.0 **** 0.06
33480 H 112.62752990711911 31.939930656789016 121.373600314479 H 0.0 **** 0.06
33481 C 90.78685450689758 138.99546484329198 28.302403252487572 C 0.0 **** -0.24
33482 H 90.2798095150883 139.67503674432223 27.61773380602093 H 0.0 **** 0.06
33483 H 91.57916805042797 138.46842791191943 27.771370145993643 H 0.0 **** 0.06
33484 H 90.06967696969306 138.27490586189964 28.695408325412615 H 0.0 **** 0.06
33485 H 91.21873302372987 139.56552924886603 29.12601507137795 H 0.0 **** 0.06
33486 C 121.166185674665 92.29016523702211 90.81460730404896 C 0.0 **** -0.24
33487 H 120.92989471702376 93.29964435217084 90.47628291410982 H 0.0 **** 0.06
33488 H 121.76561599799766 91.7845101436132 90.05759338803938 H 0.0 **** 0.06
33489 H 120.24044085978915 91.73642072582669 90.97506430330472 H 0.0 **** 0.06
33490 H 121.72581461845377 92.3418331178986 91.7480438057822 H 0.0 **** 0.06
33491 C 122.70201992931644 20.24158041837751 11.840970646562965 C 0.0 **** -0.24
33492 H 122.43745095565015 20.965697612969052 11.070735365905932 H 0.0 **** 0.06
33493 H 121.87473002895223 20.139347704637174 12.543636117391259 H 0.0 **** 0.06
33494 H 123.58989007916236 20.585769219024712 12.372386260761857 H 0.0 **** 0.06
33495 H 122.90694921698548 19.277178390250356 11.377692621394232 H 0.0 **** 0.06
33496 C 138.36296445891742 78.02493769377685 127.46854451777949 C 0.0 **** -0.24
33497 H 139.24932254921913 78.58667685343755 127.76223021366553 H 0.0 **** 0.06
33498 H 138.30514183856462 77.10608358410565 128.05276070298493 H 0.0 **** 0.06
33499 H 138.42329846885377 77.77854180318855 126.40827061862808 H 0.0 **** 0.06
33500 H 137.47409497903212 78.6284485343756 127.6509165358396 H 0.0 **** 0.06
33501 C 37.177262648785046 10.97822096193488 106.29399099048283 C 0.0 **** -0.24
33502 H 37.40314857181272 10.743394443183604 107.33422601990887 H 0.0 **** 0.06
33503 H 38.05474463037871 11.419691985207237 105.82127694333741 H 0.0 **** 0.06
33504 H 36.348711685737214 11.68546637938681 106.25377801619098 H 0.0 **** 0.06
33505 H 36.900259647691556 10.064405235091527 105.76714751425612 H 0.0 **** 0.06
33506 C 124.08910968440057 133.8246442896089 105.98843377546433 C 0.0 **** -0.24
33507 H 124.67092682987663 134.1694509634873 106.84222881555002 H 0.0 **** 0.06
33508 H 124.18555799088506 134.53891902761558 105.16975726571744 H 0.0 **** 0.06
33509 H 123.04019940990486 133.7386113234437 106.27394113383372 H 0.0 **** 0.06
33510 H 124.45810157879987 132.8511431279042 105.66605772736483 H 0.0 **** 0.06
33511 C 145.43181283568322 104.14299962604855 18.640950199090156 C 0.0 **** -0.24
33512 H 144.40716748174765 104.08299147346759 19.008701195601674 H 0.0 **** 0.06
33513 H 145.434150953215 104.03694586886422 17.55543233421554 H 0.0 **** 0.06
33514 H 146.02506019009726 103.34336439710103 19.08528223008591 H 0.0 **** 0.06
33515 H 145.85936871129127 105.10779811062912 18.912995598997668 H 0.0 **** 0.06
33516 C 154.24211282223072 91.32078974957831 156.18582010229701 C 0.0 **** -0.24
33517 H 154.73424208521124 91.90134558081984 155.40586269629802 H 0.0 **** 0.06
33518 H 153.16666710832286 91.31383724138043 156.00955319419035 H 0.0 **** 0.06
33519 H 154.4481699085574 91.76961554434885 157.157501499683 H 0.0 **** 0.06
33520 H 154.61937218683167 90.29836063176418 156.17036301901672 H 0.0 **** 0.06
33521 C 154.9792340312767 156.25187472689677 34.9885269540614 C 0.0 **** -0.24
33522 H 156.05285529124544 156.2698260759699 34.80293337974615 H 0.0 **** 0.06
33523 H 154.79689175723854 156.19771429040648 36.061975513305526 H 0.0 **** 0.06
33524 H 154.54026273029447 155.3825193315613 34.50021228714911 H 0.0 **** 0.06
33525 H 154.526819616528 157.15951876098615 34.58817163550009 H 0.0 **** 0.06
33526 C 44.22332622846643 76.10016221706469 154.91604269838257 C 0.0 **** -0.24
33527 H 43.303411751529964 76.5274765319647 154.51653838348244 H 0.0 **** 0.06
33528 H 45.07472160235457 76.4779134300997 154.3491689744925 H 0.0 **** 0.06
33529 H 44.18524442784488 75.0140395642007 154.83486263153594 H 0.0 **** 0.06
33530 H 44.3296388389339 76.38335710152182 155.96301171817674 H 0.0 **** 0.06
33531 C 119.9583389680318 73.4253039545868 60.06881518060624 C 0.0 **** -0.24
33532 H 119.24786004628288 72.60598919808622 60.175950003689394 H 0.0 **** 0.06
33533 H 120.35893828374947 73.4292791783557 59.055151903706985 H 0.0 **** 0.06
33534 H 120.77364612167975 73.29432540735685 60.78046940018615 H 0.0 **** 0.06
33535 H 119.45364798973276 74.37189310725806 60.26430910460863 H 0.0 **** 0.06
33536 C 62.735534039872064 162.12976203191982 111.95128677588593 C 0.0 **** -0.24
33537 H 61.72350180779884 162.3143036034659 111.59114094218725 H 0.0 **** 0.06
33538 H 62.937566836742164 162.77202208491448 112.80976373858766 H 0.0 **** 0.06
33539 H 63.449988078298006 162.34919000144288 111.15810543606577 H 0.0 **** 0.06
33540 H 62.83026710356843 161.08599550523365 112.24794632798097 H 0.0 **** 0.06
33541 C 6.479554762139394 158.4577892369464 7.461474278994785 C 0.0 **** -0.24
33542 H 5.5314261862989795 157.9232900529032 7.408026514964689 H 0.0 **** 0.06
33543 H 7.155967233550925 158.0762493037953 6.696367544161006 H 0.0 **** 0.06
33544 H 6.924166559475218 158.31059971436326 8.445976927410072 H 0.0 **** 0.06
33545 H 6.30791330618834 159.52176849308415 7.296455406193502 H 0.0 **** 0.06
33546 C 146.31297759217728 162.83069128024948 35.52961782865725 C 0.0 **** -0.24
33547 H 146.48850254685195 163.50528807778437 36.36840507685744 H 0.0 **** 0.06
33548 H 145.64332749283625 162.0294963652783 35.84247772112778 H 0.0 **** 0.06
33549 H 147.26147164017232 162.40539064372388 35.20274133318104 H 0.0 **** 0.06
33550 H 145.86016662361618 163.3841039106165 34.707893729049346 H 0.0 **** 0.06
33551 C 98.92686174992446 63.114828126985515 120.72787488371853 C 0.0 **** -0.24
33552 H 99.23786618102787 62.765680070180636 119.74339444919877 H 0.0 **** 0.06
33553 H 99.66046825337216 62.80295133882217 121.47140714835473 H 0.0 **** 0.06
33554 H 97.95568215199157 62.68634763247994 120.9743855198301 H 0.0 **** 0.06
33555 H 98.85389726718779 64.20142304404213 120.72175406238097 H 0.0 **** 0.06
33556 C 73.35686111241635 107.6360808462563 150.31840849110938 C 0.0 **** -0.24
33557 H 72.40037950167799 107.90198365637471 150.76882661899734 H 0.0 **** 0.06
33558 H 74.14669751174745 108.24510571470142 150.7585187481004 H 0.0 **** 0.06
33559 H 73.31556139870017 107.81558056789441 149.24426463311022 H 0.0 **** 0.06
33560 H 73.56505249882215 106.58218067655358 150.50331289603434 H 0.0 **** 0.06
33561 C 100.69101925732829 42.893139172319025 86.69878902397889 C 0.0 **** -0.24
33562 H 99.92475801526771 43.62589670744315 86.44646393773097 H 0.0 **** 0.06
33563 H 100.95984698840925 42.3270004602884 85.80748355522627 H 0.0 **** 0.06
33564 H 100.30693716808386 42.21416117977621 87.45960875846335 H 0.0 **** 0.06
33565 H 101.57216607395927 43.407511951475 87.08249958085158 H 0.0 **** 0.06
33566 C 85.68876748385958 11.978132291819065 47.63447395601793 C 0.0 **** -0.24
33567 H 85.13705502065636 12.612796692859547 46.940531356654674 H 0.0 **** 0.06
33568 H 85.08003036036143 11.114087876918148 47.89845914655183 H 0.0 **** 0.06
33569 H 85.92616547895977 12.545579980498616 48.53439182538227 H 0.0 **** 0.06
33570 H 86.61271990889509 11.642464989907182 47.162662276741344 H 0.0 **** 0.06
33571 C 70.67686027684033 112.16831169973818 122.14814330342645 C 0.0 **** -0.24
33572 H 69.84605243090925 112.5399468984703 122.74802617656155 H 0.0 **** 0.06
33573 H 70.89545894398452 112.87961837979555 121.3514110408108 H 0.0 **** 0.06
33574 H 70.40802986117944 111.20501002297189 121.7133675247778 H 0.0 **** 0.06
33575 H 71.55605147645076 112.04898505088596 122.78046506444622 H 0.0 **** 0.06
33576 C 33.45650919857735 66.81133523325066 84.23907999210593 C 0.0 **** -0.24
33577 H 34.466491201289955 66.86540100765602 84.64528572662005 H 0.0 **** 0.06
33578 H 32.73418203602088 66.86255653695204 85.05439387939782 H 0.0 **** 0.06
33579 H 33.33220291335138 65.87289321698101 83.70051492882692 H 0.0 **** 0.06
33580 H 33.2946112719373 67.64625829045218 83.55700270987961 H 0.0 **** 0.06
33581 C 136.01606366607658 91.57248473307997 14.845301982372483 C 0.0 **** -0.24
33582 H 135.07059653040008 91.87515383961077 15.295894011514818 H 0.0 **** 0.06
33583 H 136.7986284524374 91.57674173501543 15.605488246118618 H 0.0 **** 0.06
33584 H 136.27867520169966 92.27056760869318 14.049816366155568 H 0.0 **** 0.06
33585 H 135.917081463415 90.56976772491666 14.430476769344622 H 0.0 **** 0.06
33586 C 56.91871106707107 53.08241382111393 106.30344271705124 C 0.0 **** -0.24
33587 H 57.916777186375555 52.704678027355385 106.52845069059964 H 0.0 **** 0.06
33588 H 56.210328931789945 52.69014073714655 107.0342111361254 H 0.0 **** 0.06
33589 H 56.625442896078226 52.76168490444945 105.30413266534245 H 0.0 **** 0.06
33590 H 56.92370106447096 54.17103766533867 106.34972507296555 H 0.0 **** 0.06
33591 C 110.08648907420246 114.49317018100595 121.09098724246999 C 0.0 **** -0.24
33592 H 110.283358442228 115.1136483875936 121.96429935870839 H 0.0 **** 0.06
33593 H 109.03005825511656 114.22694418580298 121.06515152282884 H 0.0 **** 0.06
33594 H 110.6894924144749 113.58688499049549 121.14557640138787 H 0.0 **** 0.06
33595 H 110.34471065511971 115.04626331235767 120.18746940410824 H 0.0 **** 0.06
33596 C 82.64695462932539 76.25013546082005 4.829628018029737 C 0.0 **** -0.24
33597 H 82.43520497538616 76.76037220120031 3.8898272849669695 H 0.0 **** 0.06
33598 H 81.7708688736386 75.6772063584126 5.136688121735666 H 0.0 **** 0.06
33599 H 82.88650550304146 76.98707688732839 5.596351942051555 H 0.0 **** 0.06
33600 H 83.49263717882104 75.57704726522911 4.694705403536197 H 0.0 **** 0.06
33601 C 106.38802369235918 150.91725628597914 0.15273973437717814 C 0.0 **** -0.24
33602 H 107.00905068687831 150.770580289216 -0.7304530267294354 H 0.0 **** 0.06
33603 H 105.6732736188676 151.71877539775943 -0.03429049632160286 H 0.0 **** 0.06
33604 H 107.02003425932014 151.18425669561566 1.0003689655861763 H 0.0 **** 0.06
33605 H 105.85132727493897 149.99538544480822 0.37601748239654853 H 0.0 **** 0.06
33606 C 162.14890212651815 59.92505981487257 98.85867489234306 C 0.0 **** -0.24
33607 H 161.50375579323415 59.73963905247764 99.71824178683357 H 0.0 **** 0.06
33608 H 163.09710374282608 59.40371753388875 98.99799410473798 H 0.0 **** 0.06
33609 H 162.3322867093288 60.994530222872626 98.76638767186478 H 0.0 **** 0.06
33610 H 161.66231743361487 59.55930555961014 97.95424300964197 H 0.0 **** 0.06
33611 C 37.07517574327005 8.085116063057967 111.7323439221064 C 0.0 **** -0.24
33612 H 37.87726604704898 8.539408629199045 112.31372353448907 H 0.0 **** 0.06
33613 H 36.14809199869222 8.117850073370818 112.30529164470133 H 0.0 **** 0.06
33614 H 37.32963065946663 7.049114147591894 111.50993536809804 H 0.0 **** 0.06
33615 H 36.94531140468274 8.636243979963979 110.79997318919166 H 0.0 **** 0.06
33616 C 118.8980944520053 105.16158187032306 62.47519838112885 C 0.0 **** -0.24
33617 H 118.05858026065806 104.72628597619916 61.93159345711271 H 0.0 **** 0.06
33618 H 119.82520374546826 104.94875821624464 61.94237540398737 H 0.0 **** 0.06
33619 H 118.9451974257833 104.7306607036378 63.475177434339656 H 0.0 **** 0.06
33620 H 118.76112637738575 106.24008934638925 62.55004629073045 H 0.0 **** 0.06
33621 C 153.44935707596835 11.065780220813444 9.564946950313612 C 0.0 **** -0.24
33622 H 153.19598246939347 10.184508948395262 10.153898643561433 H 0.0 **** 0.06
33623 H 153.01363738449112 10.974853167770817 8.56990500085385 H 0.0 **** 0.06
33624 H 154.53345602568058 11.147632020886505 9.481744607630105 H 0.0 **** 0.06
33625 H 153.0548072187263 11.956426746223812 10.055544624832805 H 0.0 **** 0.06
33626 C 125.27979892160488 84.47306490596412 50.185767828437875 C 0.0 **** -0.24
33627 H 125.84136183706215 83.89752508684408 49.44914655673321 H 0.0 **** 0.06
33628 H 124.29011644373429 84.03403709414239 50.31075191291794 H 0.0 **** 0.06
33629 H 125.1805206017473 85.50279122249401 49.84169603576137 H 0.0 **** 0.06
33630 H 125.80908759800451 84.45750829996007 51.138272595576666 H 0.0 **** 0.06
33631 C 144.3276134431059 135.46082832616645 67.92260544689907 C 0.0 **** -0.24
33632 H 144.94190852707726 136.3457983520323 68.08795493148921 H 0.0 **** 0.06
33633 H 144.04233374475734 135.40803309672498 66.87196516079177 H 0.0 **** 0.06
33634 H 143.43156300595084 135.51989654582422 68.54150564529016 H 0.0 **** 0.06
33635 H 144.89533025705407 134.56927840119073 68.18966015628072 H 0.0 **** 0.06
33636 C 147.83592599514128 123.52242312074964 9.278269726440463 C 0.0 **** -0.24
33637 H 148.3889759031354 124.46170055309591 9.263052388512143 H 0.0 **** 0.06
33638 H 147.64755767273198 123.22856539686484 10.311297749140152 H 0.0 **** 0.06
33639 H 148.42090919938644 122.74862397321766 8.779744473259107 H 0.0 **** 0.06
33640 H 146.88670850887763 123.65156912166191 8.75749688333979 H 0.0 **** 0.06
33641 C 24.892227737129815 100.64639099346743 144.70646655543732 C 0.0 **** -0.24
33642 H 25.956889981336957 100.41980753900424 144.7583422026063 H 0.0 **** 0.06
33643 H 24.725636973654247 101.67777605391277 145.01778350051217 H 0.0 **** 0.06
33644 H 24.345055419825627 99.97485785229284 145.3681731026597 H 0.0 **** 0.06
33645 H 24.542128288645955 100.5132193693639 143.6831007679943 H 0.0 **** 0.06
33646 C 116.01679636945622 34.87762822338172 71.31510347309312 C 0.0 **** -0.24
33647 H 115.972814785942 33.81881233578909 71.569395391874 H 0.0 **** 0.06
33648 H 116.5593090802113 35.41598744179703 72.09285098667578 H 0.0 **** 0.06
33649 H 115.00469945370895 35.27564508062909 71.23545863314591 H 0.0 **** 0.06
33650 H 116.53157876608893 35.000911817834265 70.36103315796056 H 0.0 **** 0.06
33651 C 67.35442777844018 24.021022924486772 134.72986438273654 C 0.0 **** -0.24
33652 H 67.82204852388176 23.270775681502073 134.09327288962805 H 0.0 **** 0.06
33653 H 66.76899924392798 23.526705077887698 135.5049470526509 H 0.0 **** 0.06
33654 H 66.70079165229212 24.651749468048365 134.1276088824221 H 0.0 **** 0.06
33655 H 68.12653678421145 24.63610868329755 135.19358206745196 H 0.0 **** 0.06
33656 C 52.03320997886317 139.80779026068916 39.780553706728426 C 0.0 **** -0.24
33657 H 51.513120172540766 139.66621347160455 40.727948799516184 H 0.0 **** 0.06
33658 H 51.93225656525817 140.84641856956233 39.46356547347034 H 0.0 **** 0.06
33659 H 51.597301033021836 139.15342110991048 39.02602455283221 H 0.0 **** 0.06
33660 H 53.08819213341644 139.56675147597008 39.90623097958701 H 0.0 **** 0.06
33661 C 39.705519536764385 45.6165432951302 101.10056196671644 C 0.0 **** -0.24
33662 H 39.40144658104178 45.82842503906333 100.07551483643448 H 0.0 **** 0.06
33663 H 40.06283923356001 44.58819134197417 101.16717124905645 H 0.0 **** 0.06
33664 H 38.85390629357694 45.749605771793824 101.76722987201325 H 0.0 **** 0.06
33665 H 40.50463993458932 46.2994461494567 101.39005662469623 H 0.0 **** 0.06
33666 C 12.408581615396038 124.21668769209074 12.488072930535708 C 0.0 **** -0.24
33667 H 12.022008531640644 125.18444660553686 12.167252393463826 H 0.0 **** 0.06
33668 H 11.632950811737466 123.67863801235819 13.033868937642922 H 0.0 **** 0.06
33669 H 13.271683931347852 124.36748588749865 13.136781774811311 H 0.0 **** 0.06
33670 H 12.707541417776959 123.63787802467877 11.614076210645663 H 0.0 **** 0.06
33671 C 134.19022407735235 138.91493854715213 112.00105517459465 C 0.0 **** -0.24
33672 H 134.77366765327096 137.99876652270427 111.91692293563753 H 0.0 **** 0.06
33673 H 133.22594597295972 138.68984104192586 112.45767069502668 H 0.0 **** 0.06
33674 H 134.03274520276432 139.337156881191 111.00822842303685 H 0.0 **** 0.06
33675 H 134.7280588615603 139.63267500190187 112.61965435935227 H 0.0 **** 0.06
33676 C 123.23196857530218 121.40598176486515 49.63947807876322 C 0.0 **** -0.24
33677 H 123.73614541488661 122.37162268021996 49.627430104544246 H 0.0 **** 0.06
33678 H 123.64762481684659 120.78995153292215 50.43829881383758 H 0.0 **** 0.06
33679 H 123.37880943589687 120.90746323376783 48.68129339160856 H 0.0 **** 0.06
33680 H 122.16575144034891 121.55462916852082 49.81220284810031 H 0.0 **** 0.06
33681 C 17.495262843552666 126.373865434398 41.426087914660314 C 0.0 **** -0.24
33682 H 17.50815613037608 125.63659136030338 40.62332109864616 H 0.0 **** 0.06
33683 H 16.843418169240294 126.02540171367787 42.22817485458202 H 0.0 **** 0.06
33684 H 17.123692256302178 127.32308947194457 41.04081026948859 H 0.0 **** 0.06
33685 H 18.505628557972273 126.50815385816708 41.81189173351842 H 0.0 **** 0.06
33686 C 50.83574166302611 112.04641521363973 9.681916210425669 C 0.0 **** -0.24
33687 H 50.8192465331674 111.07386243740189 9.189027893222928 H 0.0 **** 0.06
33688 H 51.18446294721953 111.92750412463275 10.708027067642334 H 0.0 **** 0.06
33689 H 49.83070674202857 112.46791240290324 9.685042349463814 H 0.0 **** 0.06
33690 H 51.50889710446445 112.7143610701439 9.143377468164147 H 0.0 **** 0.06
33691 C 155.6915492197526 16.39580939890712 128.76268369797512 C 0.0 **** -0.24
33692 H 154.82558022075443 16.323810477149408 128.10436256423134 H 0.0 **** 0.06
33693 H 156.57618932560015 16.638040546209965 128.17385961001884 H 0.0 **** 0.06
33694 H 155.84194197653838 15.44171708377715 129.26979195878124 H 0.0 **** 0.06
33695 H 155.5217405210285 17.17734073771186 129.50257125480616 H 0.0 **** 0.06
33696 C 107.02953027778574 142.98552436745774 34.27633629680372 C 0.0 **** -0.24
33697 H 106.27502192184923 142.24281530690916 34.53775795327965 H 0.0 **** 0.06
33698 H 107.67287497308044 142.58843172558716 33.490788138141596 H 0.0 **** 0.06
33699 H 107.62973069047405 143.21622680127996 35.156275327148236 H 0.0 **** 0.06
33700 H 106.53918768289006 143.89233514654376 33.92227245158213 H 0.0 **** 0.06
33701 C 49.80839038088121 34.090463407543496 1.9238342314456247 C 0.0 **** -0.24
33702 H 49.31315112584872 33.33281537693669 2.5299013505521657 H 0.0 **** 0.06
33703 H 50.71296431508091 34.42692395856385 2.4311035599035336 H 0.0 **** 0.06
33704 H 49.136220119049256 34.93608943687923 1.7787493983003912 H 0.0 **** 0.06
33705 H 50.07197969531961 33.66541648031723 0.9553340301427227 H 0.0 **** 0.06
33706 C 86.03764269788397 67.36534211794884 94.87251828176069 C 0.0 **** -0.24
33707 H 84.96925137448665 67.50083064203736 95.04176870782491 H 0.0 **** 0.06
33708 H 86.25755267137203 66.30229012014587 94.77445244638692 H 0.0 **** 0.06
33709 H 86.59336337257832 67.77515682489366 95.71549412474644 H 0.0 **** 0.06
33710 H 86.32808563587318 67.88387733662049 93.95825901165817 H 0.0 **** 0.06
33711 C 55.10755505900937 55.33290261510456 50.25055691772435 C 0.0 **** -0.24
33712 H 54.41712257732786 54.53683608935988 50.531006485330295 H 0.0 **** 0.06
33713 H 56.01852067981932 54.896762711658525 49.841288714246744 H 0.0 **** 0.06
33714 H 55.35156368990474 55.9283028388418 51.13038259279644 H 0.0 **** 0.06
33715 H 54.639802049216826 55.9705266933444 49.49941075543467 H 0.0 **** 0.06
33716 C 47.790651621380675 57.123917362622905 42.737554754782025 C 0.0 **** -0.24
33717 H 46.86416824970698 57.669166270826395 42.559002159383624 H 0.0 **** 0.06
33718 H 48.63994641631861 57.77718910853656 42.541523673953066 H 0.0 **** 0.06
33719 H 47.835984249607634 56.25925346676655 42.07538547289073 H 0.0 **** 0.06
33720 H 47.82064885307672 56.78846589355112 43.7742602753718 H 0.0 **** 0.06
33721 C 112.00239213379399 16.754736194161474 35.673072474999486 C 0.0 **** -0.24
33722 H 112.40309377054098 17.192684760757814 34.75963607013895 H 0.0 **** 0.06
33723 H 111.10786020301919 16.178093402095627 35.43666480613297 H 0.0 **** 0.06
33724 H 111.74765191717904 17.548884185021976 36.37577175934054 H 0.0 **** 0.06
33725 H 112.75015496275208 16.100325960361246 36.11970858720353 H 0.0 **** 0.06
33726 C 49.32121767415417 95.6193459293813 137.087151490984 C 0.0 **** -0.24
33727 H 48.41741311360528 95.70732845237339 137.69069044651505 H 0.0 **** 0.06
33728 H 49.07570006220482 95.15930657680175 136.13063086165982 H 0.0 **** 0.06
33729 H 50.04981095380383 95.0010889999255 137.61209155854013 H 0.0 **** 0.06
33730 H 49.74165159653438 96.61030662266492 136.91731314896822 H 0.0 **** 0.06
33731 C 160.6403321771284 109.63053935588675 21.408868411407838 C 0.0 **** -0.24
33732 H 159.6177791457901 109.91055591941858 21.664549691969626 H 0.0 **** 0.06
33733 H 160.6404424731921 109.08007474978706 20.46815455656258 H 0.0 **** 0.06
33734 H 161.053731727958 109.00230351422096 22.19775458130536 H 0.0 **** 0.06
33735 H 161.2466780579824 110.53047252060867 21.30393585638683 H 0.0 **** 0.06
33736 C 51.64317636278591 102.12289778515071 54.46000229673879 C 0.0 **** -0.24
33737 H 51.441813230497104 101.24522477445805 53.84617184998524 H 0.0 **** 0.06
33738 H 50.798740293868605 102.81050757974742 54.39850921717206 H 0.0 **** 0.06
33739 H 52.54428479233344 102.62037082193052 54.098430595145885 H 0.0 **** 0.06
33740 H 51.788109595817005 101.8172497483788 55.49554198755138 H 0.0 **** 0.06
33741 C 129.43693827339257 151.7972380735776 157.47427156131133 C 0.0 **** -0.24
33742 H 129.46713737768425 152.8808355831843 157.57862788987381 H 0.0 **** 0.06
33743 H 129.6026246783749 151.3338158095924 158.44673475863942 H 0.0 **** 0.06
33744 H 130.21482844316313 151.47763194370913 156.78115494165402 H 0.0 **** 0.06
33745 H 128.46193221913867 151.49669376047262 157.08987178921396 H 0.0 **** 0.06
33746 C 109.29913843221092 30.470902917528548 41.13959317678737 C 0.0 **** -0.24
33747 H 110.1192084893496 31.028675732382 40.688966500170636 H 0.0 **** 0.06
33748 H 108.37156482272937 31.031708989486617 41.02367677795678 H 0.0 **** 0.06
33749 H 109.50273824615118 30.318659531021126 42.20032451583066 H 0.0 **** 0.06
33750 H 109.20347258687997 29.50332961997276 40.64593657112712 H 0.0 **** 0.06
33751 C 68.07624327595609 6.933680096846274 146.1199930059753 C 0.0 **** -0.24
33752 H 67.45319577188386 6.043338178317661 146.2081743470338 H 0.0 **** 0.06
33753 H 68.31998275303624 7.102766938439025 145.07126160317802 H 0.0 **** 0.06
33754 H 68.99511338994157 6.7909510834458615 146.68886821603795 H 0.0 **** 0.06
33755 H 67.5369734340436 7.795686919747965 146.5115962544092 H 0.0 **** 0.06
33756 C 2.29079846976515 136.9964817089285 140.07021846399027 C 0.0 **** -0.24
33757 H 2.4051338375577345 137.93000254858336 140.62035944041767 H 0.0 **** 0.06
33758 H 1.5149094279274067 137.11354419217133 139.31295136604473 H 0.0 **** 0.06
33759 H 2.008985308221689 136.20045522569905 140.75981911051667 H 0.0 **** 0.06
33760 H 3.234543835092744 136.7411110766861 139.58730293210758 H 0.0 **** 0.06
33761 C 104.98963385997544 124.13842868318292 133.34719843637012 C 0.0 **** -0.24
33762 H 104.2671143061284 124.02615773713018 132.53847005035075 H 0.0 **** 0.06
33763 H 104.52485591554208 124.66945416613552 134.1785793886952 H 0.0 **** 0.06
33764 H 105.84984136959432 124.70464132531438 132.9894552977613 H 0.0 **** 0.06
33765 H 105.31607294966986 123.1533425698392 133.68153919846773 H 0.0 **** 0.06
33766 C 95.84156417905756 109.36739257215194 14.405761862622711 C 0.0 **** -0.24
33767 H 95.01751673332564 108.69195657570253 14.634866352690437 H 0.0 **** 0.06
33768 H 96.5452995409218 108.86812120896175 13.738981139490974 H 0.0 **** 0.06
33769 H 96.35041381897082 109.64643443260528 15.328568748114101 H 0.0 **** 0.06
33770 H 95.45243753253658 110.26260035925444 13.919965250556622 H 0.0 **** 0.06
33771 C 132.23585369206944 154.2905870688948 158.8714941280962 C 0.0 **** -0.24
33772 H 132.48375510411748 154.62965789315723 157.86470081219736 H 0.0 **** 0.06
33773 H 131.28634671327757 154.72972673186587 159.17898353495903 H 0.0 **** 0.06
33774 H 133.0205066649806 154.60003715817106 159.56188112783002 H 0.0 **** 0.06
33775 H 132.1532760376422 153.2040459261509 158.87766759558798 H 0.0 **** 0.06
33776 C 38.21804596290157 129.08307437716422 56.64857999510197 C 0.0 **** -0.24
33777 H 39.23961013994128 128.8110072339221 56.38517360887202 H 0.0 **** 0.06
33778 H 38.193647914108254 130.12006074485112 56.98508987122469 H 0.0 **** 0.06
33779 H 37.86346304000595 128.4326329972841 57.44694504965052 H 0.0 **** 0.06
33780 H 37.575892909687894 128.9692817173343 55.77479937970615 H 0.0 **** 0.06
33781 C 136.31457736058186 0.8462935216129495 72.401297940649 C 0.0 **** -0.24
33782 H 136.47354904136196 -0.22211185011271084 72.54863372510917 H 0.0 **** 0.06
33783 H 136.1409605270952 1.0456173024052617 71.34367840064482 H 0.0 **** 0.06
33784 H 137.1966967043345 1.393654559407544 72.7344454041132 H 0.0 **** 0.06
33785 H 135.44822828965192 1.1672429316965633 72.97950172214468 H 0.0 **** 0.06
33786 C 130.1977847898246 118.18884894637941 64.21464027558885 C 0.0 **** -0.24
33787 H 130.99441726899744 117.5658170394156 63.80840292692537 H 0.0 **** 0.06
33788 H 130.24664095756114 119.1806670467189 63.76309643126197 H 0.0 **** 0.06
33789 H 130.3189479428775 118.27411584699965 65.29407432755018 H 0.0 **** 0.06
33790 H 129.23235038415666 117.7351089101536 63.99113806622802 H 0.0 **** 0.06
33791 C 125.72609557930025 10.286322970227673 75.78646466083548 C 0.0 **** -0.24
33792 H 125.11980343726094 11.168370306583142 75.58324764776702 H 0.0 **** 0.06
33793 H 125.8904432674405 9.736369206798344 74.85966232967256 H 0.0 **** 0.06
33794 H 125.20815406778573 9.647507294808719 76.50200081408023 H 0.0 **** 0.06
33795 H 126.68575624610878 10.59328144132948 76.20189305053077 H 0.0 **** 0.06
33796 C 48.98822402384806 148.18987580558309 19.167451620607153 C 0.0 **** -0.24
33797 H 49.291459609127145 149.2055057472675 19.41847713329173 H 0.0 **** 0.06
33798 H 47.94816123170591 148.03815531578297 19.45876448142178 H 0.0 **** 0.06
33799 H 49.62127845427091 147.47983593272818 19.69837843629955 H 0.0 **** 0.06
33800 H 49.09006818552504 148.0353069325089 18.09284791955031 H 0.0 **** 0.06
33801 C 36.3417834872798 131.2619663475184 138.6846447197599 C 0.0 **** -0.24
33802 H 36.644817226173416 131.71561082193938 139.6281695432668 H 0.0 **** 0.06
33803 H 37.201132272339635 131.2038466963245 138.01643020651062 H 0.0 **** 0.06
33804 H 35.56328236231457 131.86972606386735 138.22406685946615 H 0.0 **** 0.06
33805 H 35.95767245834733 130.2587019507119 138.8718989718565 H 0.0 **** 0.06
33806 C 68.26637150829222 67.66577868558115 64.37942040407657 C 0.0 **** -0.24
33807 H 67.39045448749698 68.01097710085548 64.92870474100192 H 0.0 **** 0.06
33808 H 68.46602101480835 66.62461024951484 64.63094612774006 H 0.0 **** 0.06
33809 H 69.12772506901183 68.27692938765057 64.64994163103631 H 0.0 **** 0.06
33810 H 68.0813182742402 67.75279524222861 63.30850290360897 H 0.0 **** 0.06
33811 C 131.384794642753 99.02116442052738 154.91234069152404 C 0.0 **** -0.24
33812 H 132.33752188717253 99.44552630494599 155.23041249166178 H 0.0 **** 0.06
33813 H 131.10366260405996 99.44388500814591 153.94821159617288 H 0.0 **** 0.06
33814 H 130.61836580800983 99.25711798405757 155.65051994470758 H 0.0 **** 0.06
33815 H 131.480576170385 97.93953472797318 154.82198618047653 H 0.0 **** 0.06
33816 C 157.45777244751895 161.18916109753005 138.7866075253932 C 0.0 **** -0.24
33817 H 156.7960890685148 161.504251275632 137.9806552326533 H 0.0 **** 0.06
33818 H 158.21002029772336 161.95908847517663 138.96182709932503 H 0.0 **** 0.06
33819 H 157.94900339258336 160.25676420455133 138.509398162605 H 0.0 **** 0.06
33820 H 156.87506184990343 161.03703468518415 139.69550784494214 H 0.0 **** 0.06
33821 C 80.92789827403874 26.317476689106456 22.644907745503588 C 0.0 **** -0.24
33822 H 80.07205946263704 25.8732012072943 22.137009062690623 H 0.0 **** 0.06
33823 H 81.08661080304194 25.812592416543282 23.598663537113737 H 0.0 **** 0.06
33824 H 80.73634152035658 27.376232220191866 22.821459758585718 H 0.0 **** 0.06
33825 H 81.8164232242923 26.207723752681773 22.023473477395527 H 0.0 **** 0.06
33826 C 159.1899223361728 14.875895565439308 75.07836528359798 C 0.0 **** -0.24
33827 H 160.21456106041288 14.664143501655595 75.38263552546522 H 0.0 **** 0.06
33828 H 159.12832529554083 15.894020155564206 74.6927631461433 H 0.0 **** 0.06
33829 H 158.52731797642573 14.77219240885897 75.93748574498233 H 0.0 **** 0.06
33830 H 158.88923886022852 14.173325975213501 74.30154081498301 H 0.0 **** 0.06
33831 C 92.88289137447948 149.53687782978466 82.69646566004593 C 0.0 **** -0.24
33832 H 93.5420034636546 150.22529086193117 83.22544166009934 H 0.0 **** 0.06
33833 H 91.93683782497382 149.45721164414354 83.23084080971967 H 0.0 **** 0.06
33834 H 93.35327969006015 148.55530360508322 82.63874452568547 H 0.0 **** 0.06
33835 H 92.70094876916235 149.91108915302436 81.68888060767307 H 0.0 **** 0.06
33836 C 42.146723264685576 145.436019146086 36.98378806401121 C 0.0 **** -0.24
33837 H 43.15459513112671 145.64709502916133 37.34198095225716 H 0.0 **** 0.06
33838 H 42.10609831248607 144.41992486518697 36.591926011802656 H 0.0 **** 0.06
33839 H 41.887055254900304 146.1409279702637 36.19366595589622 H 0.0 **** 0.06
33840 H 41.43978353686825 145.5372637374924 37.808130015912695 H 0.0 **** 0.06
33841 C 49.19475261316413 104.42452443261658 85.0329469082716 C 0.0 **** -0.24
33842 H 49.224803183990275 105.18356943388159 84.25191907675216 H 0.0 **** 0.06
33843 H 48.301569173849174 104.5645975839249 85.64176273466397 H 0.0 **** 0.06
33844 H 50.08140485247026 104.51495397538659 85.66108000223852 H 0.0 **** 0.06
33845 H 49.17254715695154 103.43453495260653 84.57674561400715 H 0.0 **** 0.06
33846 C 87.1174326272228 18.410199307250856 145.1180111197212 C 0.0 **** -0.24
33847 H 87.69186986259155 18.084118794597593 145.98497548618474 H 0.0 **** 0.06
33848 H 86.2406545550073 17.77283302685757 145.0030794221674 H 0.0 **** 0.06
33849 H 87.73782134704587 18.341665821047677 144.2248259031736 H 0.0 **** 0.06
33850 H 86.79963296217983 19.443014709552102 145.2614530206361 H 0.0 **** 0.06
33851 C 34.59218513358067 128.79871977725588 92.53276207625828 C 0.0 **** -0.24
33852 H 33.96265483733056 128.11214948770169 91.96787831862731 H 0.0 **** 0.06
33853 H 34.29428149579566 129.82507902544904 92.31690797787553 H 0.0 **** 0.06
33854 H 35.634375458427144 128.65528988423966 92.24674973110085 H 0.0 **** 0.06
33855 H 34.478548737451845 128.60313601187397 93.59844241202292 H 0.0 **** 0.06
33856 C 160.2935095439219 160.00529713291607 100.92079020790868 C 0.0 **** -0.24
33857 H 160.07478851575223 160.85158641854784 101.57269851490923 H 0.0 **** 0.06
33858 H 159.70370506806012 160.08878283974877 100.00814862305549 H 0.0 **** 0.06
33859 H 160.03989974832353 159.07705333729905 101.43344057939251 H 0.0 **** 0.06
33860 H 161.35387936276913 160.00522536659705 100.66974105506986 H 0.0 **** 0.06
33861 C 75.72193137587121 78.31830407538285 123.54949262487077 C 0.0 **** -0.24
33862 H 75.3930098142168 79.3553713410349 123.60627213769337 H 0.0 **** 0.06
33863 H 74.97945682421785 77.67485119780181 124.0214245986786 H 0.0 **** 0.06
33864 H 76.67650306008649 78.21073786998335 124.06567602336312 H 0.0 **** 0.06
33865 H 75.84162346408866 78.03138912955289 122.50475750329326 H 0.0 **** 0.06
33866 C 134.9216241761564 24.12624902011388 56.974741971731035 C 0.0 **** -0.24
33867 H 134.4938755438313 24.95525990497434 57.538591169472184 H 0.0 **** 0.06
33868 H 134.59960495060884 24.188291369346146 55.935816957482146 H 0.0 **** 0.06
33869 H 134.58458486949505 23.18353826973317 57.404834726774325 H 0.0 **** 0.06
33870 H 136.00981252951226 24.17850819918263 57.02165648353596 H 0.0 **** 0.06
33871 C 22.51721057373186 98.61247024662816 24.540588905675605 C 0.0 **** -0.24
33872 H 23.277561546315837 99.12921657538897 23.954587625930515 H 0.0 **** 0.06
33873 H 22.847435953856404 97.59417357634095 24.744914464903147 H 0.0 **** 0.06
33874 H 21.58284019207173 98.58566285301356 23.97937662119299 H 0.0 **** 0.06
33875 H 22.3624960138593 99.14069571442741 25.480877204985696 H 0.0 **** 0.06
33876 C 27.78486252300374 73.43719297199536 35.4624326458914 C 0.0 **** -0.24
33877 H 28.52140130517941 73.57499233520254 34.6712216782164 H 0.0 **** 0.06
33878 H 27.171478735314878 72.56416425102307 35.239618741165046 H 0.0 **** 0.06
33879 H 27.14948544802803 74.32195276305592 35.52448108327138 H 0.0 **** 0.06
33880 H 28.29639219206416 73.29031104420504 36.41318178444379 H 0.0 **** 0.06
33881 C 129.3186927691642 24.034962353707755 85.58436817426168 C 0.0 **** -0.24
33882 H 129.8606103142586 24.038453612778227 84.63773039090724 H 0.0 **** 0.06
33883 H 129.20757809121693 25.059247063111457 85.94268684880687 H 0.0 **** 0.06
33884 H 129.87387339055118 23.45143672713229 86.3180562170908 H 0.0 **** 0.06
33885 H 128.33320429927045 23.592189004630626 85.43739499598077 H 0.0 **** 0.06
33886 C 67.61466757185036 4.304161135293157 86.8857652355716 C 0.0 **** -0.24
33887 H 68.515987870045 4.118135026161184 86.30214991084145 H 0.0 **** 0.06
33888 H 67.67930729402242 3.7686159373732266 87.83390075273834 H 0.0 **** 0.06
33889 H 66.74420970206002 3.9558274590027622 86.33102785402076 H 0.0 **** 0.06
33890 H 67.52037729134909 5.373060206108335 87.0775697689487 H 0.0 **** 0.06
33891 C 29.789895737684184 69.64335303363245 125.06925047782534 C 0.0 **** -0.24
33892 H 28.814896104789916 69.43582133415174 124.62945832742207 H 0.0 **** 0.06
33893 H 30.133598516740093 70.62566310401934 124.74381352924559 H 0.0 **** 0.06
33894 H 30.50206499196002 68.88405797673798 124.74878086175511 H 0.0 **** 0.06
33895 H 29.707787041791377 69.62976129725922 126.15692245900505 H 0.0 **** 0.06
33896 C 81.82636640717621 23.330024159470042 124.19032433902004 C 0.0 **** -0.24
33897 H 82.53438191168603 22.607072047218253 124.59628882553284 H 0.0 **** 0.06
33898 H 81.44799133821815 22.969930949528333 123.23428092704631 H 0.0 **** 0.06
33899 H 82.32733437856409 24.28768194113306 124.0472420749806 H 0.0 **** 0.06
33900 H 80.99566264641324 23.45433539625259 124.8856838594713 H 0.0 **** 0.06
33901 C 89.51608164234888 110.73452205311239 110.72837502010378 C 0.0 **** -0.24
33902 H 88.80723078282038 109.94352280218715 110.48380908696035 H 0.0 **** 0.06
33903 H 89.6290945389383 110.79860939566794 111.81039245975703 H 0.0 **** 0.06
33904 H 89.14518461369433 111.68495471912843 110.34448701289236 H 0.0 **** 0.06
33905 H 90.48086329128505 110.51042064535716 110.27389095097433 H 0.0 **** 0.06
33906 C 83.56758601962838 121.37920558109647 117.15407230180864 C 0.0 **** -0.24
33907 H 82.62158657966228 121.6146323150466 116.66694177064701 H 0.0 **** 0.06
33908 H 83.47459328215155 121.54601263589882 118.2273223287201 H 0.0 **** 0.06
33909 H 84.35215294167321 122.02247487147042 116.75348738907417 H 0.0 **** 0.06
33910 H 83.82263576584086 120.33679997681742 116.96841137563496 H 0.0 **** 0.06
33911 C 99.90080272576367 80.69414327530279 40.50586470145696 C 0.0 **** -0.24
33912 H 99.08297248790979 81.31382087259904 40.13744748182147 H 0.0 **** 0.06
33913 H 99.85489718619692 79.7127455564456 40.03283501735777 H 0.0 **** 0.06
33914 H 99.81287086097703 80.58263986360662 41.58644964674967 H 0.0 **** 0.06
33915 H 100.8523721065157 81.16847686991231 40.26585593098554 H 0.0 **** 0.06
33916 C 39.43550284553139 126.72313741382777 161.77688426398674 C 0.0 **** -0.24
33917 H 38.514867208152026 126.93908675278146 161.23508932921334 H 0.0 **** 0.06
33918 H 39.35665261317875 125.74675078295482 162.25486819807116 H 0.0 **** 0.06
33919 H 39.59899284742757 127.48767988137502 162.53638323714125 H 0.0 **** 0.06
33920 H 40.27387814064744 126.71962935634517 161.07946943097096 H 0.0 **** 0.06
33921 C 134.44352921146248 106.65478615912377 118.12318339935047 C 0.0 **** -0.24
33922 H 135.10020168044298 107.12171635942838 118.85655866593692 H 0.0 **** 0.06
33923 H 134.61376234045002 105.57796040452558 118.11695073446472 H 0.0 **** 0.06
33924 H 134.6554244642708 107.06132088103368 117.13459665117725 H 0.0 **** 0.06
33925 H 133.4048784687084 106.85788835315293 118.3836732901114 H 0.0 **** 0.06
33926 C 113.93808527318978 125.81451266936762 14.956775643048289 C 0.0 **** -0.24
33927 H 113.6457672583521 125.60797840934953 15.987120576688625 H 0.0 **** 0.06
33928 H 114.69590917010154 125.09674157868699 14.643648765219297 H 0.0 **** 0.06
33929 H 114.3426360288592 126.82386542168538 14.889853837238967 H 0.0 **** 0.06
33930 H 113.06508890576248 125.72916355437943 14.30854514975266 H 0.0 **** 0.06
33931 C 85.74859409215891 0.32034384356290957 65.9291930099898 C 0.0 **** -0.24
33932 H 86.48309648120555 0.09128387869600374 65.1563860083366 H 0.0 **** 0.06
33933 H 84.82482757471239 0.6619364938099181 65.46192890222284 H 0.0 **** 0.06
33934 H 86.13849907835032 1.103469293400991 66.57900257533947 H 0.0 **** 0.06
33935 H 85.55049722437093 -0.5750343735049057 66.51788929615418 H 0.0 **** 0.06
33936 C 56.93176349617997 122.4855384758248 144.99940515614423 C 0.0 **** -0.24
33937 H 57.386666305287434 122.74701105584518 144.0442657083198 H 0.0 **** 0.06
33938 H 57.532482391641636 122.89535805835158 145.81191398747472 H 0.0 **** 0.06
33939 H 56.88468192071947 121.40047152758473 145.09350568349782 H 0.0 **** 0.06
33940 H 55.92430616131544 122.89871985735306 145.047245688555 H 0.0 **** 0.06
33941 C 72.9203694370501 37.358215543296794 132.85047983220105 C 0.0 **** -0.24
33942 H 73.18471019220044 37.90290321810579 133.75640484708623 H 0.0 **** 0.06
33943 H 73.41634420529532 36.38681941645331 132.85321760447914 H 0.0 **** 0.06
33944 H 73.2400072350467 37.9272967103979 131.9778681543868 H 0.0 **** 0.06
33945 H 71.84043133851048 37.21372988087688 132.81516041448526 H 0.0 **** 0.06
33946 C 130.96960526563407 77.72236033386571 64.35172940520224 C 0.0 **** -0.24
33947 H 131.88248610441653 78.29498876372833 64.18187602182414 H 0.0 **** 0.06
33948 H 130.15206537822135 78.1671931225518 63.78396519917399 H 0.0 **** 0.06
33949 H 130.72490348779434 77.73707904785334 65.41359062093898 H 0.0 **** 0.06
33950 H 131.1210988840066 76.69322300629062 64.02704512450498 H 0.0 **** 0.06
33951 C 111.21051158595745 126.4083989256923 162.11964170223763 C 0.0 **** -0.24
33952 H 110.20102195071715 126.80967091546296 162.03207280334198 H 0.0 **** 0.06
33953 H 111.35419194633178 125.62217855799997 161.37863540228068 H 0.0 **** 0.06
33954 H 111.351123546579 125.99543066208821 163.11951739699066 H 0.0 **** 0.06
33955 H 111.93449972378349 127.20516225253161 161.95062331042448 H 0.0 **** 0.06
33956 C 128.06062339506593 113.43412452030486 103.34714545470047 C 0.0 **** -0.24
33957 H 127.66346163905428 112.47792182029457 103.68776957520515 H 0.0 **** 0.06
33958 H 127.27237638611086 113.99590325087559 102.84618521650668 H 0.0 **** 0.06
33959 H 128.8811879096554 113.25914218717998 102.65146168248361 H 0.0 **** 0.06
33960 H 128.42423902206576 114.0023881971764 104.20273524966103 H 0.0 **** 0.06
33961 C 57.59635801531198 26.745878535974498 31.193599337215375 C 0.0 **** -0.24
33962 H 56.95115358024336 27.29287133700302 30.506339590207773 H 0.0 **** 0.06
33963 H 57.920263914857955 25.81556308307941 30.725125180404092 H 0.0 **** 0.06
33964 H 57.04614795770746 26.520428813122265 32.10700733146717 H 0.0 **** 0.06
33965 H 58.46871283125968 27.353578138937678 31.435560379602975 H 0.0 **** 0.06
33966 C 139.80395464159994 93.69855122259432 101.21808671876204 C 0.0 **** -0.24
33967 H 139.0192246701821 93.5852612906029 100.47075942101947 H 0.0 **** 0.06
33968 H 139.97963607040697 92.74047216839381 101.70882642851927 H 0.0 **** 0.06
33969 H 139.49590404823974 94.43566898898547 101.95991358513197 H 0.0 **** 0.06
33970 H 140.72155307652923 94.03205382731934 100.73328368136401 H 0.0 **** 0.06
33971 C 67.67316180248544 57.13908107574508 125.05195553884386 C 0.0 **** -0.24
33972 H 67.54710459336691 57.99465675233675 124.38880722632737 H 0.0 **** 0.06
33973 H 68.48262187783517 56.508593784630534 124.6820203242128 H 0.0 **** 0.06
33974 H 66.74762856183852 56.56256334758892 125.08047634989114 H 0.0 **** 0.06
33975 H 67.91420716122457 57.488945393031386 126.05534625349293 H 0.0 **** 0.06
33976 C 54.82355068294308 108.35483963745966 70.06109761444833 C 0.0 **** -0.24
33977 H 53.841798241390336 107.99464430715841 69.75202423529136 H 0.0 **** 0.06
33978 H 55.32796196985754 107.58170130847407 70.64070026637224 H 0.0 **** 0.06
33979 H 54.706153283757686 109.24966813082949 70.67191400156936 H 0.0 **** 0.06
33980 H 55.416598666504 108.59268372355618 69.17736339489439 H 0.0 **** 0.06
33981 C 96.77344717515399 153.78245349518244 66.69444571727314 C 0.0 **** -0.24
33982 H 97.71651189412168 154.32404140837724 66.61375893319438 H 0.0 **** 0.06
33983 H 95.95264291526621 154.43853424242644 66.40241264298926 H 0.0 **** 0.06
33984 H 96.62977046364358 153.45585045387503 67.72428274568381 H 0.0 **** 0.06
33985 H 96.79694414537838 152.91348013739633 66.03678695000823 H 0.0 **** 0.06
33986 C 65.41746005693875 109.46831479347645 31.228863733023786 C 0.0 **** -0.24
33987 H 65.81746008304793 109.2564880579962 30.237176647525473 H 0.0 **** 0.06
33988 H 64.37232783994898 109.76848531169219 31.142202209912057 H 0.0 **** 0.06
33989 H 65.98993263539114 110.27398941251329 31.6876854723547 H 0.0 **** 0.06
33990 H 65.48748323610968 108.57366744481908 31.847104555213377 H 0.0 **** 0.06
33991 C 80.74604479102462 19.25988100890345 125.77731077601453 C 0.0 **** -0.24
33992 H 81.64572921639815 18.73420675691432 126.09696272209925 H 0.0 **** 0.06
33993 H 80.01535775607773 19.253164267696377 126.5864783830803 H 0.0 **** 0.06
33994 H 80.3260175130769 18.761306716225647 124.90303298586082 H 0.0 **** 0.06
33995 H 80.99698411695525 20.28889550235158 125.52233735548046 H 0.0 **** 0.06
33996 C 146.62554023001144 133.5080693029272 50.335554961369354 C 0.0 **** -0.24
33997 H 147.50822010256104 132.90210386742126 50.12682297211711 H 0.0 **** 0.06
33998 H 146.79212402890897 134.52531647835747 49.982199818777914 H 0.0 **** 0.06
33999 H 146.44202599089112 133.5217675386398 51.40953946512781 H 0.0 **** 0.06
34000 H 145.76358398065 133.08130805823362 49.82485734649656 H 0.0 **** 0.06
34001 C 37.31390596653213 61.470599270197596 83.25146607908184 C 0.0 **** -0.24
34002 H 36.990841135414044 62.16293107388594 84.0289296767256 H 0.0 **** 0.06
34003 H 38.28246831023935 61.786919538655866 82.86402661876024 H 0.0 **** 0.06
34004 H 36.582973419808155 61.46561246152987 82.44223457253153 H 0.0 **** 0.06
34005 H 37.39944785831774 60.46763192738254 83.6694480714092 H 0.0 **** 0.06
34006 C 141.34308761486912 132.38762542341772 88.80316020759633 C 0.0 **** -0.24
34007 H 140.4678460696835 131.95528350473114 88.31813076269992 H 0.0 **** 0.06
34008 H 141.54358198366347 131.85392385930388 89.73253985282429 H 0.0 **** 0.06
34009 H 141.15572390153227 133.43874715848216 89.02072116122072 H 0.0 **** 0.06
34010 H 142.20483319308093 132.30121119274116 88.14096309990694 H 0.0 **** 0.06
34011 C 60.9260573872879 19.219194261192662 78.96118048868658 C 0.0 **** -0.24
34012 H 60.05304254521937 19.869749907028847 78.99349522826748 H 0.0 **** 0.06
34013 H 60.65643360438287 18.271810981289335 78.49473779824638 H 0.0 **** 0.06
34014 H 61.28119779988525 19.03769920240112 79.97506936558602 H 0.0 **** 0.06
34015 H 61.71495214296971 19.699185997490254 78.38090564466253 H 0.0 **** 0.06
34016 C 46.38552456528065 27.021555552070765 34.35152848593421 C 0.0 **** -0.24
34017 H 47.20569191297692 27.07992623650486 35.066834874899925 H 0.0 **** 0.06
34018 H 46.77264064128774 27.162286627117567 33.342205062524314 H 0.0 **** 0.06
34019 H 45.65440095256021 27.799511001888106 34.573103438388 H 0.0 **** 0.06
34020 H 45.90837263263289 26.043764968529274 34.424661883469255 H 0.0 **** 0.06
34021 C 55.062907175011674 93.42106117407648 23.60184584252375 C 0.0 **** -0.24
34022 H 55.48891793388816 92.85544649330751 24.431286473671037 H 0.0 **** 0.06
34023 H 55.50517131377745 94.41703444794433 23.577197775808017 H 0.0 **** 0.06
34024 H 53.984816879402615 93.50477994293152 23.735282373135284 H 0.0 **** 0.06
34025 H 55.27473004732218 92.90666035789913 22.664982619072056 H 0.0 **** 0.06
34026 C 151.18138550472116 53.77599418817688 34.39547069534592 C 0.0 **** -0.24
34027 H 150.4484355474716 54.377180936492636 33.8566973345138 H 0.0 **** 0.06
34028 H 150.76979202382068 52.78274543297762 34.57953759871259 H 0.0 **** 0.06
34029 H 151.41649989872812 54.254362388870945 35.34584899845227 H 0.0 **** 0.06
34030 H 152.08894862301943 53.68861455348302 33.79862999278825 H 0.0 **** 0.06
34031 C 32.9181259109144 121.70135966252175 141.95443204786176 C 0.0 **** -0.24
34032 H 32.29492907554101 121.61992673416717 142.845461937231 H 0.0 **** 0.06
34033 H 33.136220295518484 120.70463029140228 141.57073130398854 H 0.0 **** 0.06
34034 H 33.849621731331794 122.20560694099063 142.20814255373222 H 0.0 **** 0.06
34035 H 32.388885340689015 122.27614670633565 141.19302729827083 H 0.0 **** 0.06
34036 C 151.56911844347485 31.95227902764043 73.03452290853672 C 0.0 **** -0.24
34037 H 151.42111344784018 32.58825791162042 73.90690196360045 H 0.0 **** 0.06
34038 H 152.07450520596797 31.034290619085112 73.33471011986681 H 0.0 **** 0.06
34039 H 152.17759059144902 32.479856623622084 72.30028563860962 H 0.0 **** 0.06
34040 H 150.60135596888227 31.707817776574927 72.59512970839808 H 0.0 **** 0.06
34041 C 5.467216882934622 155.57508698833925 104.11189738790372 C 0.0 **** -0.24
34042 H 5.910993079599052 156.43817682316188 104.60637936740073 H 0.0 **** 0.06
34043 H 6.0403580378310835 154.68081841730952 104.35736185811353 H 0.0 **** 0.06
34044 H 5.477666964426817 155.7296066915889 103.03300707391313 H 0.0 **** 0.06
34045 H 4.4381446509820535 155.45171490237874 104.4505366493895 H 0.0 **** 0.06
34046 C 6.447416517123244 103.53510404197414 123.87352362503509 C 0.0 **** -0.24
34047 H 5.889582447935695 102.72527855806476 123.40110669551609 H 0.0 **** 0.06
34048 H 7.4438865884577865 103.59131453538157 123.43560168358272 H 0.0 **** 0.06
34049 H 6.529982935897799 103.34267945396755 124.94264260009629 H 0.0 **** 0.06
34050 H 5.924588642765961 104.4775708531671 123.71217566214887 H 0.0 **** 0.06
34051 C 45.68202695103962 15.397052417092148 27.747793284171735 C 0.0 **** -0.24
34052 H 45.182974440210685 15.372389523435238 26.77893818858081 H 0.0 **** 0.06
34053 H 46.32467419231389 16.276500260540345 27.802509913738845 H 0.0 **** 0.06
34054 H 46.286053889897914 14.498196738538326 27.867637990026026 H 0.0 **** 0.06
34055 H 44.93542684858342 15.442256133230018 28.540170557486363 H 0.0 **** 0.06
34056 C 99.94288855461326 91.18075185104789 133.10077344148965 C 0.0 **** -0.24
34057 H 100.28335946135738 91.66129402344937 132.18453352485483 H 0.0 **** 0.06
34058 H 99.36598547959738 90.28932349970634 132.85166656676617 H 0.0 **** 0.06
34059 H 99.31557214626196 91.87425429444373 133.66250415846125 H 0.0 **** 0.06
34060 H 100.80476885898636 90.89933303097916 133.70542675587728 H 0.0 **** 0.06
34061 C 82.11588347951823 61.87845794824449 40.65175213866439 C 0.0 **** -0.24
34062 H 82.64004863171135 61.09090451312892 41.19315433304732 H 0.0 **** 0.06
34063 H 82.75125247268849 62.76175299158905 40.59050712802693 H 0.0 **** 0.06
34064 H 81.19410233447707 62.12830994078405 41.17580873610714 H 0.0 **** 0.06
34065 H 81.87892964069539 61.53128139042559 39.64617610244318 H 0.0 **** 0.06
34066 C 22.308707759347385 25.871976718055016 41.41560379710792 C 0.0 **** -0.24
34067 H 21.555856340722926 25.109595387303074 41.214481161064555 H 0.0 **** 0.06
34068 H 23.30034016111992 25.46181815836575 41.22284225976608 H 0.0 **** 0.06
34069 H 22.240766358171555 26.18382118041515 42.457566769837925 H 0.0 **** 0.06
34070 H 22.13802293454711 26.730526071165272 40.76691625862483 H 0.0 **** 0.06
34071 C 114.12592665670076 84.36325554470432 107.35561066907889 C 0.0 **** -0.24
34072 H 114.6961248297064 83.51110207187912 107.72358664081958 H 0.0 **** 0.06
34073 H 114.81045699428196 85.16305534132653 107.07109284599545 H 0.0 **** 0.06
34074 H 113.45723236663622 84.71976036291892 108.13963499413154 H 0.0 **** 0.06
34075 H 113.54009695993707 84.06046803114202 106.48781395367189 H 0.0 **** 0.06
34076 C 93.36896350711186 6.392736101846367 11.223112521899168 C 0.0 **** -0.24
34077 H 93.59799786649465 5.561790604185347 11.890377611716787 H 0.0 **** 0.06
34078 H 92.30717296256944 6.629521152730945 11.290577568856605 H 0.0 **** 0.06
34079 H 93.61475968994155 6.113343891695109 10.19884884983054 H 0.0 **** 0.06
34080 H 93.95601762872695 7.2634407098446445 11.513584156588252 H 0.0 **** 0.06
34081 C 143.94623211971359 145.01188967455846 41.598504596024256 C 0.0 **** -0.24
34082 H 144.97512094539803 144.732157534488 41.37351670439496 H 0.0 **** 0.06
34083 H 143.76798022273545 144.90906780764942 42.66923836423456 H 0.0 **** 0.06
34084 H 143.26538068256718 144.3593545554334 41.052188674334644 H 0.0 **** 0.06
34085 H 143.7774361146659 146.04560755702352 41.29869954399497 H 0.0 **** 0.06
34086 C 143.8402969069681 32.977370966397956 59.604933416063886 C 0.0 **** -0.24
34087 H 144.22139700003225 32.67982549511544 58.6282961998665 H 0.0 **** 0.06
34088 H 143.6816486574724 32.08968892219974 60.218405680586955 H 0.0 **** 0.06
34089 H 142.8946413450152 33.506580473121346 59.47983438078842 H 0.0 **** 0.06
34090 H 144.56160543257994 33.63321677250599 60.09258200775622 H 0.0 **** 0.06
34091 C 86.43976622789057 77.07718405936095 55.32245301164188 C 0.0 **** -0.24
34092 H 87.00583436877379 76.70906704997714 54.46749128911185 H 0.0 **** 0.06
34093 H 87.10123304271787 77.64262412772823 55.98024636348447 H 0.0 **** 0.06
34094 H 86.01808750473155 76.23334950012821 55.869546403616 H 0.0 **** 0.06
34095 H 85.634311300714 77.72378428218241 54.974942791254094 H 0.0 **** 0.06
34096 C 26.162840877028557 13.575386979172897 122.2435701060119 C 0.0 **** -0.24
34097 H 27.106212330689708 14.081868854160959 122.44891927917988 H 0.0 **** 0.06
34098 H 26.323405461654424 12.797667325114737 121.49652992788168 H 0.0 **** 0.06
34099 H 25.437333419165398 14.297166923277324 121.86731152365849 H 0.0 **** 0.06
34100 H 25.785251148251156 13.125400941355572 123.16251322782298 H 0.0 **** 0.06
34101 C 28.031879883662896 160.24620866015485 52.40029334845893 C 0.0 **** -0.24
34102 H 27.751582634654056 160.76783463728273 53.31485368942526 H 0.0 **** 0.06
34103 H 27.169430633714683 159.70388008929166 52.01296033375007 H 0.0 **** 0.06
34104 H 28.837092982309883 159.54310245979448 52.61460015969023 H 0.0 **** 0.06
34105 H 28.36956765728371 160.96919619419168 51.65820991052725 H 0.0 **** 0.06
34106 C 89.9610736040696 1.9601585928568284 13.240865741971788 C 0.0 **** -0.24
34107 H 90.82218438534673 1.6305518712497644 12.658628231107912 H 0.0 **** 0.06
34108 H 89.39708363075171 1.0906751213485677 13.577471798335182 H 0.0 **** 0.06
34109 H 89.32430201823189 2.59065497156098 12.620248209299007 H 0.0 **** 0.06
34110 H 90.30335566257641 2.5285341273007305 14.10537432174658 H 0.0 **** 0.06
34111 C 135.8208911915599 82.09270520025075 46.38443104635735 C 0.0 **** -0.24
34112 H 136.2338274310703 81.83083152123983 47.35749971274322 H 0.0 **** 0.06
34113 H 136.46158280709588 81.69154751949104 45.598270333848575 H 0.0 **** 0.06
34114 H 135.76687030414408 83.1774436396574 46.29213198090682 H 0.0 **** 0.06
34115 H 134.82060905827962 81.67087802086371 46.288231617791325 H 0.0 **** 0.06
34116 C 122.83440038333208 144.8253473812626 50.78433599022799 C 0.0 **** -0.24
34117 H 121.86756648995015 144.89199059684097 51.28375643059678 H 0.0 **** 0.06
34118 H 122.93028894463959 145.64098908757492 50.06820065182433 H 0.0 **** 0.06
34119 H 122.90915260072188 143.8716614410278 50.26252657310013 H 0.0 **** 0.06
34120 H 123.6316521502331 144.89684680625777 51.526001945662415 H 0.0 **** 0.06
34121 C 119.87666318827698 131.06861125693683 94.08951257385266 C 0.0 **** -0.24
34122 H 120.83178016706628 131.14969006603872 94.60887723699823 H 0.0 **** 0.06
34123 H 119.10112503529197 130.7805848829313 94.80007029390644 H 0.0 **** 0.06
34124 H 119.95219338998132 130.31243318772033 93.30768216238533 H 0.0 **** 0.06
34125 H 119.62357256995759 132.03002408585627 93.6428321949477 H 0.0 **** 0.06
34126 C 14.039741114924375 22.455404197763016 109.96898745570866 C 0.0 **** -0.24
34127 H 14.116424924650417 21.398466358678178 109.71224657847932 H 0.0 **** 0.06
34128 H 13.374083898199132 22.953313431672655 109.26292813547087 H 0.0 **** 0.06
34129 H 15.026939713354722 22.91339063401915 109.92271481126431 H 0.0 **** 0.06
34130 H 13.639639192544067 22.55539604135629 110.97867254638786 H 0.0 **** 0.06
34131 C 29.574116348242484 88.16196165838085 136.9120682285037 C 0.0 **** -0.24
34132 H 28.619610514780447 87.7305193012568 137.21486186547327 H 0.0 **** 0.06
34133 H 29.934050982708072 87.65462099646379 136.01677700247376 H 0.0 **** 0.06
34134 H 30.299442621582216 88.03938636612048 137.71618696326954 H 0.0 **** 0.06
34135 H 29.441138923532435 89.22312881344658 136.70028970096496 H 0.0 **** 0.06
34136 C 96.60270064805533 108.02051703008976 122.55771743695814 C 0.0 **** -0.24
34137 H 96.93247436875129 109.05340762174413 122.66558842005793 H 0.0 **** 0.06
34138 H 95.73504487737677 107.84815049337578 123.19636848897576 H 0.0 **** 0.06
34139 H 97.40928568847383 107.3486582997821 122.85114251099756 H 0.0 **** 0.06
34140 H 96.3322191758948 107.83245544516794 121.51898385654735 H 0.0 **** 0.06
34141 C 128.8952559912723 138.76971736715396 33.97810791171065 C 0.0 **** -0.24
34142 H 129.4806576608983 138.34097547913086 34.79202815416653 H 0.0 **** 0.06
34143 H 128.17271343386238 139.47705288843105 34.38527074291164 H 0.0 **** 0.06
34144 H 128.36902030596266 137.97435935472691 33.45182049685704 H 0.0 **** 0.06
34145 H 129.56039877963516 139.28598644201995 33.28625087833893 H 0.0 **** 0.06
34146 C 149.9773972673121 12.10100918540644 23.93167673561976 C 0.0 **** -0.24
34147 H 150.41184801748028 11.193514236138014 24.349895926315874 H 0.0 **** 0.06
34148 H 149.9284028760228 12.870014454790237 24.702906477754603 H 0.0 **** 0.06
34149 H 148.97225220658106 11.887207698097143 23.56822221636785 H 0.0 **** 0.06
34150 H 150.5952084803714 12.452105646592429 23.10590110112451 H 0.0 **** 0.06
34151 C 82.32035631351803 1.9606095109474495 6.053591676523439 C 0.0 **** -0.24
34152 H 83.12477901961103 1.54202832840366 5.448687747911038 H 0.0 **** 0.06
34153 H 82.51410133976844 1.7537569301289864 7.107129903584962 H 0.0 **** 0.06
34154 H 81.37333678733106 1.5076094354414806 5.762149107445595 H 0.0 **** 0.06
34155 H 82.27209789204403 3.0379576340908443 5.8985143710392265 H 0.0 **** 0.06
34156 C 13.776885055286897 117.77089222309178 52.022069307707454 C 0.0 **** -0.24
34157 H 12.908411697873191 117.17484503154421 52.30171125237894 H 0.0 **** 0.06
34158 H 13.515521153894667 118.42551692739517 51.190068530858696 H 0.0 **** 0.06
34159 H 14.590029162471438 117.1099029970338 51.72434675389172 H 0.0 **** 0.06
34160 H 14.091686428432013 118.37391108588884 52.87461094683556 H 0.0 **** 0.06
34161 C 126.57404266665114 112.15302260399807 76.06314436091708 C 0.0 **** -0.24
34162 H 127.34103132106603 112.16837456724764 75.28887724037544 H 0.0 **** 0.06
34163 H 126.43827611592809 111.13136259071712 76.41863153604918 H 0.0 **** 0.06
34164 H 125.63503263883396 112.52303927870622 75.65229443172527 H 0.0 **** 0.06
34165 H 126.88347337809805 112.78890171341422 76.89313669541569 H 0.0 **** 0.06
34166 C 137.62370703070667 111.7151043807801 44.23527377951501 C 0.0 **** -0.24
34167 H 137.41130091114468 111.56034185902922 43.17719151742793 H 0.0 **** 0.06
34168 H 138.67401222821638 111.49622493206618 44.43074160236884 H 0.0 **** 0.06
34169 H 136.99650940772335 111.05173877737565 44.83100784831029 H 0.0 **** 0.06
34170 H 137.41225542704734 112.75057257512535 44.50071618663043 H 0.0 **** 0.06
34171 C 96.96308984065251 87.36143108164367 90.71960156623393 C 0.0 **** -0.24
34172 H 97.52621904487415 88.28585379125713 90.84922031641474 H 0.0 **** 0.06
34173 H 96.00818598044091 87.44207443220154 91.23746455596029 H 0.0 **** 0.06
34174 H 97.5330428298208 86.52901652093655 91.13349101309427 H 0.0 **** 0.06
34175 H 96.7885773617227 87.18849117294309 89.65753845803965 H 0.0 **** 0.06
34176 C 42.910976099160706 115.20249813586457 136.83997283021807 C 0.0 **** -0.24
34177 H 42.51838936414826 116.02003795408055 137.44512915330398 H 0.0 **** 0.06
34178 H 42.093842042334856 114.54144736569057 136.54966834418303 H 0.0 **** 0.06
34179 H 43.64372047537836 114.64154992118895 137.4185543561183 H 0.0 **** 0.06
34180 H 43.38592148229604 115.60778422121214 135.94697680396132 H 0.0 **** 0.06
34181 C 59.44714777505516 150.67408675497444 45.5409792344913 C 0.0 **** -0.24
34182 H 60.30431597585351 150.06756322546158 45.83510466733998 H 0.0 **** 0.06
34183 H 59.143838880534304 151.3032344887576 46.377634892959335 H 0.0 **** 0.06
34184 H 58.621350527691504 150.02157563908833 45.257460265851705 H 0.0 **** 0.06
34185 H 59.721716525028484 151.30257266661062 44.69405816207001 H 0.0 **** 0.06
34186 C 17.563653015956817 35.99822519927193 138.98508905879316 C 0.0 **** -0.24
34187 H 18.47429291587278 36.56882302917268 139.17054519772108 H 0.0 **** 0.06
34188 H 17.10325045907416 35.73056977822836 139.93589393002398 H 0.0 **** 0.06
34189 H 17.809942692791736 35.092728744741294 138.43142274010535 H 0.0 **** 0.06
34190 H 16.869144156670302 36.60340392301691 138.40229834470344 H 0.0 **** 0.06
34191 C 141.736512768942 148.57508158235856 79.05595356109312 C 0.0 **** -0.24
34192 H 142.81768822889066 148.702421485463 79.12278974652968 H 0.0 **** 0.06
34193 H 141.38333002183217 148.01524759284257 79.92221779400815 H 0.0 **** 0.06
34194 H 141.49000743021088 148.03098862334033 78.1450442466036 H 0.0 **** 0.06
34195 H 141.25649231663655 149.5537499041242 79.03534886854581 H 0.0 **** 0.06
34196 C 55.36329778572912 38.29741780454549 62.12780106841939 C 0.0 **** -0.24
34197 H 54.62402728701775 37.709777388735915 62.671645450996905 H 0.0 **** 0.06
34198 H 55.358624378785464 39.32198984528202 62.49981202298524 H 0.0 **** 0.06
34199 H 55.11849548728773 38.29558823118094 61.06532030896447 H 0.0 **** 0.06
34200 H 56.35220051888686 37.8623801523774 62.27270270364683 H 0.0 **** 0.06
34201 C 39.47622802391949 38.454681380703335 65.85725013905264 C 0.0 **** -0.24
34202 H 39.30432498349987 39.50129302638982 65.60512660562243 H 0.0 **** 0.06
34203 H 40.35976496741415 38.37399665303457 66.49040280462835 H 0.0 **** 0.06
34204 H 39.631013258689904 37.881788352761106 64.94314021389685 H 0.0 **** 0.06
34205 H 38.60957989963788 38.06262092982635 66.39032753811334 H 0.0 **** 0.06
34206 C 35.48536635960373 120.21882640466288 101.3592881627886 C 0.0 **** -0.24
34207 H 34.4501323361181 120.44495378351178 101.10244423648604 H 0.0 **** 0.06
34208 H 35.966508738164805 121.11676511251773 101.74760756602933 H 0.0 **** 0.06
34209 H 36.014663949101646 119.87850427648749 100.46934279200366 H 0.0 **** 0.06
34210 H 35.50884165811951 119.43713819265281 102.11794505273977 H 0.0 **** 0.06
34211 C 94.02746018726555 16.692926841930756 139.07974582327785 C 0.0 **** -0.24
34212 H 93.24766713401898 16.025000856496433 138.7146163798151 H 0.0 **** 0.06
34213 H 93.6861057994344 17.726255883608616 139.00041610395002 H 0.0 **** 0.06
34214 H 94.92919273058938 16.560901049313088 138.48191853910203 H 0.0 **** 0.06
34215 H 94.24507501725458 16.461673135458256 140.1231505424288 H 0.0 **** 0.06
34216 C 61.431054383970036 57.06781492497598 43.687022662735785 C 0.0 **** -0.24
34217 H 61.03832403658379 56.47552759989641 42.86007678893269 H 0.0 **** 0.06
34218 H 62.35263865304995 56.615006315390815 44.0529784787155 H 0.0 **** 0.06
34219 H 60.696020009589176 57.10007551866241 44.491392966322366 H 0.0 **** 0.06
34220 H 61.63644215356166 58.08186341812544 43.34193945889328 H 0.0 **** 0.06
34221 C 108.61795063497837 130.09168285564567 71.72195805430192 C 0.0 **** -0.24
34222 H 108.12555354828817 129.15614819130565 71.98584786667402 H 0.0 **** 0.06
34223 H 109.55813866174873 130.1734283229464 72.26759347873535 H 0.0 **** 0.06
34224 H 107.97072556564558 130.92854194379169 71.9853901101485 H 0.0 **** 0.06
34225 H 108.81553154854808 130.10881024303546 70.65023640873859 H 0.0 **** 0.06
34226 C 124.93495886995942 36.25237051231221 139.39633336561837 C 0.0 **** -0.24
34227 H 125.35784797765857 36.98786863356479 140.0810765212197 H 0.0 **** 0.06
34228 H 123.90253659411033 36.52041875588223 139.1684336352709 H 0.0 **** 0.06
34229 H 124.96019746163626 35.26719078450226 139.86153521323436 H 0.0 **** 0.06
34230 H 125.5177307264567 36.235250101655296 138.4753503519661 H 0.0 **** 0.06
34231 C 59.256648128543986 135.28012762767855 26.458516205050437 C 0.0 **** -0.24
34232 H 59.5226489570404 134.92991536418566 25.46164020603252 H 0.0 **** 0.06
34233 H 58.4143119553237 134.69893521672134 26.834770151433368 H 0.0 **** 0.06
34234 H 58.98094165351124 136.33299756853103 26.411488099615966 H 0.0 **** 0.06
34235 H 60.10935614511253 135.15712879734795 27.12571419719177 H 0.0 **** 0.06
34236 C 119.32844728306011 26.27572707010978 54.199344618564155 C 0.0 **** -0.24
34237 H 119.22221721107783 26.224435585912772 55.28235254684691 H 0.0 **** 0.06
34238 H 119.2856671727481 27.316517768546134 53.879123717511405 H 0.0 **** 0.06
34239 H 118.52057786484997 25.716674150422307 53.72788765045016 H 0.0 **** 0.06
34240 H 120.28636629394356 25.844522256686048 53.90742775833614 H 0.0 **** 0.06
34241 C 127.12497082954621 98.27703921420505 102.33424347254797 C 0.0 **** -0.24
34242 H 126.39178405590579 98.74099699273017 101.67444335718568 H 0.0 **** 0.06
34243 H 126.6080960791048 97.76624946481718 103.14736967094456 H 0.0 **** 0.06
34244 H 127.7810187459354 99.04459258966 102.74531745094075 H 0.0 **** 0.06
34245 H 127.71727015887745 97.55653788858467 101.76995701343589 H 0.0 **** 0.06
34246 C 40.60648682479933 138.4673643627266 87.77029172220125 C 0.0 **** -0.24
34247 H 40.50511742147705 138.96541290159317 88.73391805888213 H 0.0 **** 0.06
34248 H 40.72723978044132 139.21495386340027 86.98576859085557 H 0.0 **** 0.06
34249 H 39.71389890636135 137.87267607525135 87.57189173825671 H 0.0 **** 0.06
34250 H 41.47975492413468 137.81426101938803 87.78842309796872 H 0.0 **** 0.06
34251 C 31.37846451491697 3.077503091183452 11.511906587866903 C 0.0 **** -0.24
34252 H 32.25074867020578 2.704283676048618 10.976309309723455 H 0.0 **** 0.06
34253 H 31.700428075225204 3.7410473876083117 12.313859989006843 H 0.0 **** 0.06
34254 H 30.824706081458316 2.2376907056982844 11.933745021567901 H 0.0 **** 0.06
34255 H 30.735954160892163 3.6254652456507657 10.821817597629327 H 0.0 **** 0.06
34256 C 85.74794215235028 16.69048841711208 79.48114425135594 C 0.0 **** -0.24
34257 H 85.86886614102929 17.0786024526318 78.46945963637893 H 0.0 **** 0.06
34258 H 86.1517255547642 15.67858664854483 79.53265810405915 H 0.0 **** 0.06
34259 H 84.6890866674949 16.672863660108284 79.73932304064249 H 0.0 **** 0.06
34260 H 86.28199710453538 17.331953457773515 80.1821419440709 H 0.0 **** 0.06
34261 C 86.03990109804289 39.503583093772164 134.25126178590264 C 0.0 **** -0.24
34262 H 86.86913764722613 40.201689298403664 134.36410378558952 H 0.0 **** 0.06
34263 H 85.97129381833975 38.875181993550996 135.13925950848255 H 0.0 **** 0.06
34264 H 86.20888012753483 38.87844450104285 133.3745989790192 H 0.0 **** 0.06
34265 H 85.11075609243039 40.060188681119726 134.12644330720212 H 0.0 **** 0.06
34266 C 5.396459678450498 37.342865693011674 76.21361566097858 C 0.0 **** -0.24
34267 H 5.628409200501359 36.291086435040086 76.38278032741192 H 0.0 **** 0.06
34268 H 4.356762990486253 37.532917273194386 76.48370473555042 H 0.0 **** 0.06
34269 H 5.548696768040749 37.58318597374762 75.1614374991106 H 0.0 **** 0.06
34270 H 6.050846063008521 37.962341679850624 76.82662447557313 H 0.0 **** 0.06
34271 C 72.26809804779825 102.55958773706709 30.407034689650764 C 0.0 **** -0.24
34272 H 71.79548859817382 102.14387726456368 29.517039761561627 H 0.0 **** 0.06
34273 H 72.3094767494274 101.79677726049351 31.185220315231682 H 0.0 **** 0.06
34274 H 71.68701078024071 103.41092351495365 30.76342335009489 H 0.0 **** 0.06
34275 H 73.27862794261509 102.88557284417709 30.1630575121997 H 0.0 **** 0.06
34276 C 89.91880812085515 32.24512590375808 128.15584014119236 C 0.0 **** -0.24
34277 H 89.07722809553695 32.61393972165939 128.74197005543425 H 0.0 **** 0.06
34278 H 89.8637118320411 32.6516584169605 127.14588540114994 H 0.0 **** 0.06
34279 H 89.88249862863978 31.15619309367564 128.11252919609996 H 0.0 **** 0.06
34280 H 90.85252869763792 32.558513741249016 128.62416784930133 H 0.0 **** 0.06
34281 C 34.070625002208544 21.221749181946336 100.15839220415654 C 0.0 **** -0.24
34282 H 33.73265879128161 21.8568142792665 100.97731101575837 H 0.0 **** 0.06
34283 H 34.9951780466547 20.720303912058682 100.44516071128248 H 0.0 **** 0.06
34284 H 34.248577236661276 21.833957975384294 99.27430270034216 H 0.0 **** 0.06
34285 H 33.306777507182346 20.47705150055731 99.93630167927785 H 0.0 **** 0.06
34286 C 115.17851339859428 144.29518560817422 134.78359385463074 C 0.0 **** -0.24
34287 H 115.16901949897922 144.2485611380937 133.6945622273832 H 0.0 **** 0.06
34288 H 116.06112206619684 144.84137950178078 135.115497466794 H 0.0 **** 0.06
34289 H 115.20253255934651 143.28380041557523 135.1892204381157 H 0.0 **** 0.06
34290 H 114.28095383149443 144.80563984868348 135.13227298685592 H 0.0 **** 0.06
34291 C 103.7251029523357 31.494766020350824 116.04225258242758 C 0.0 **** -0.24
34292 H 104.2161589661651 30.64235349193865 116.51290506934754 H 0.0 **** 0.06
34293 H 103.27837982451314 31.180140749117527 115.09875098671944 H 0.0 **** 0.06
34294 H 104.4595772412022 32.27693824738196 115.85342211357363 H 0.0 **** 0.06
34295 H 102.94806458433368 31.87701105671391 116.70386572357745 H 0.0 **** 0.06
34296 C 148.13776624478274 158.8402776616478 138.993943989383 C 0.0 **** -0.24
34297 H 148.68018275485974 158.12477829147093 139.61251157442368 H 0.0 **** 0.06
34298 H 148.85029896399683 159.4638358028 138.4525917293355 H 0.0 **** 0.06
34299 H 147.51366802216762 159.46885337001888 139.6296041662189 H 0.0 **** 0.06
34300 H 147.5101310994717 158.30364656274045 138.282981246497 H 0.0 **** 0.06
34301 C 51.45422832053856 95.27561852360108 127.0303715452153 C 0.0 **** -0.24
34302 H 52.18140809479317 95.30969248452048 126.21875438530333 H 0.0 **** 0.06
34303 H 51.56840520404353 96.16116800664206 127.65679524743632 H 0.0 **** 0.06
34304 H 51.62172772785584 94.38178168108118 127.62983835068263 H 0.0 **** 0.06
34305 H 50.44759520448845 95.25211921470593 126.61441677459572 H 0.0 **** 0.06
34306 C 6.676904253803912 90.16933941642941 11.480173548788969 C 0.0 **** -0.24
34307 H 6.134646292749991 89.31640907415141 11.89007967792736 H 0.0 **** 0.06
34308 H 6.650613951466632 90.12688634163644 10.39134233566108 H 0.0 **** 0.06
34309 H 7.712148287156239 90.13763452957976 11.820388861384856 H 0.0 **** 0.06
34310 H 6.210388005384651 91.09316870195133 11.82004389471868 H 0.0 **** 0.06
34311 C 4.863292202247294 76.57267324426056 150.22571680548663 C 0.0 **** -0.24
34312 H 4.967465571196925 75.4870210297922 150.21606905409112 H 0.0 **** 0.06
34313 H 4.117658687871398 76.85908258305525 150.96794738492497 H 0.0 **** 0.06
34314 H 4.547895369936299 76.91620231359252 149.24133353450873 H 0.0 **** 0.06
34315 H 5.821664762584334 77.02639001730128 150.47916501630556 H 0.0 **** 0.06
34316 C 48.908277179652444 147.6290712345184 147.9038430349708 C 0.0 **** -0.24
34317 H 49.10300081269624 147.6101544002384 146.83099833451627 H 0.0 **** 0.06
34318 H 48.063146193739925 146.97883246429316 148.13101704588647 H 0.0 **** 0.06
34319 H 48.677078508403824 148.64838604328742 148.21224915501205 H 0.0 **** 0.06
34320 H 49.790514082627794 147.27828745944646 148.43791194567032 H 0.0 **** 0.06
34321 C 110.16166004123698 67.87297086179181 32.05492650339414 C 0.0 **** -0.24
34322 H 109.88880065344975 68.75378274738397 32.634827345149006 H 0.0 **** 0.06
34323 H 111.1293852164635 68.03567774398228 31.580557123797007 H 0.0 **** 0.06
34324 H 109.40661266849648 67.69398837435884 31.28941321728098 H 0.0 **** 0.06
34325 H 110.22107030443192 67.00693500588004 32.71530383446998 H 0.0 **** 0.06
34326 C 130.28511803389395 133.99652680964743 102.09539071509403 C 0.0 **** -0.24
34327 H 130.11486073612446 134.98814530667758 102.51613066027431 H 0.0 **** 0.06
34328 H 130.268823733984 134.05636875382262 101.00719942192063 H 0.0 **** 0.06
34329 H 129.5016154929719 133.31984315004348 102.43403477519996 H 0.0 **** 0.06
34330 H 131.25526503599406 133.62534679485907 102.4239634028857 H 0.0 **** 0.06
34331 C 56.8282711877722 44.4928557746407 131.54740142942907 C 0.0 **** -0.24
34332 H 57.39150499860973 43.58400645324947 131.33526363114933 H 0.0 **** 0.06
34333 H 56.817464994846006 44.67088731816257 132.62255018248194 H 0.0 **** 0.06
34334 H 55.80685276832628 44.379989863178494 131.1854794464691 H 0.0 **** 0.06
34335 H 57.30048647837077 45.33701472211769 131.04447473552258 H 0.0 **** 0.06
34336 C 21.633805463725537 144.55064954536627 158.89860766792748 C 0.0 **** -0.24
34337 H 20.646290419533443 144.09065006987433 158.91492772460725 H 0.0 **** 0.06
34338 H 21.54937901794915 145.57965049291636 158.54882761191942 H 0.0 **** 0.06
34339 H 22.284015418742598 143.99005135520153 158.225896300248 H 0.0 **** 0.06
34340 H 22.056147258710382 144.54010027275203 159.90376785364674 H 0.0 **** 0.06
34341 C 155.53733822063242 161.72195791084818 3.66139076060648 C 0.0 **** -0.24
34342 H 155.84836909999495 161.6867611008385 4.70482153983852 H 0.0 **** 0.06
34343 H 155.44602425771023 162.7606224694298 3.343939117248283 H 0.0 **** 0.06
34344 H 154.57445206445408 161.22272359481997 3.5520005811893043 H 0.0 **** 0.06
34345 H 156.27979798537433 161.2167401167374 3.044075348442078 H 0.0 **** 0.06
34346 C 28.22817232185173 31.415205656302135 151.64913948799204 C 0.0 **** -0.24
34347 H 28.983999389304813 31.074606921465545 150.94203074304977 H 0.0 **** 0.06
34348 H 28.679591744288835 32.111242345659235 152.35700340479553 H 0.0 **** 0.06
34349 H 27.82354807693507 30.55981798360031 152.18880323679397 H 0.0 **** 0.06
34350 H 27.425329094267084 31.917291516236844 151.1080974975126 H 0.0 **** 0.06
34351 C 41.788377670030584 25.016587973285425 83.70679455138517 C 0.0 **** -0.24
34352 H 41.39862722521049 26.032799624280308 83.76306458479942 H 0.0 **** 0.06
34353 H 40.97847375781191 24.33058361263607 83.45867456774421 H 0.0 **** 0.06
34354 H 42.21705637903794 24.73888611094896 84.67053421724943 H 0.0 **** 0.06
34355 H 42.55903660909375 24.964675999470373 82.9378284942726 H 0.0 **** 0.06
34356 C 105.30004052154845 41.899150457318456 35.496291936163374 C 0.0 **** -0.24
34357 H 105.65981581194018 42.928215247521536 35.512300402597205 H 0.0 **** 0.06
34358 H 104.22870452874719 41.89209121028021 35.29356739945807 H 0.0 **** 0.06
34359 H 105.49049910162034 41.43234420942525 36.46275679128067 H 0.0 **** 0.06
34360 H 105.821337785531 41.34477996961539 34.71541396660602 H 0.0 **** 0.06
34361 C 96.9707288248593 94.73171572698392 144.09425039075592 C 0.0 **** -0.24
34362 H 97.29315981638157 94.9758209157902 143.08193385162224 H 0.0 **** 0.06
34363 H 95.89655621636268 94.89667276340975 144.18241081928437 H 0.0 **** 0.06
34364 H 97.49651872036341 95.36738103329928 144.80636867168062 H 0.0 **** 0.06
34365 H 97.19666403707649 93.68607369361814 144.3042477389322 H 0.0 **** 0.06
34366 C 115.62653488584453 99.61230539607445 77.87059851680849 C 0.0 **** -0.24
34367 H 116.31820465870663 99.34102461429106 78.66897471758527 H 0.0 **** 0.06
34368 H 115.7688169821281 100.66087438145843 77.60800232137956 H 0.0 **** 0.06
34369 H 114.60222094430907 99.45772272071369 78.21026013240783 H 0.0 **** 0.06
34370 H 115.81711004841452 98.98943640749684 76.99737681121837 H 0.0 **** 0.06
34371 C 72.57360583250916 118.0058686107833 96.66102607710516 C 0.0 **** -0.24
34372 H 71.68193556834888 118.54799040322442 96.97596886532432 H 0.0 **** 0.06
34373 H 73.06385219870826 117.57384597608174 97.53409585304311 H 0.0 **** 0.06
34374 H 73.25837278118901 118.69185102752593 96.16264148799674 H 0.0 **** 0.06
34375 H 72.29018109285528 117.21076838454681 95.97122399657651 H 0.0 **** 0.06
34376 C 95.681883137464 31.16392300121214 55.98212788270287 C 0.0 **** -0.24
34377 H 94.80654057338712 30.792631852459067 56.51571869537382 H 0.0 **** 0.06
34378 H 95.39866413337623 31.43117783712944 54.96337681092402 H 0.0 **** 0.06
34379 H 96.44820836417422 30.38913453196477 55.95602549429803 H 0.0 **** 0.06
34380 H 96.07245376904783 32.044203769953896 56.49306546964141 H 0.0 **** 0.06
34381 C 126.04033672590637 104.16183606822494 32.20839305452728 C 0.0 **** -0.24
34382 H 125.01430557384384 104.20082687106469 32.57508729635674 H 0.0 **** 0.06
34383 H 126.34647989391007 103.12174117288157 32.09601500190308 H 0.0 **** 0.06
34384 H 126.69856304793973 104.6599878018049 32.921053458525876 H 0.0 **** 0.06
34385 H 126.10099887771449 104.66533452005842 31.24453144027018 H 0.0 **** 0.06
34386 C 130.861057328146 73.90902171945422 94.98064533819955 C 0.0 **** -0.24
34387 H 130.9319191208092 74.99725642711242 94.961547439522 H 0.0 **** 0.06
34388 H 131.72255276225349 73.48062428855914 94.46781872826365 H 0.0 **** 0.06
34389 H 129.94613589093643 73.59630101709078 94.478937917293 H 0.0 **** 0.06
34390 H 130.84547479561002 73.56465173642968 96.01412892285732 H 0.0 **** 0.06
34391 C 110.45698089153166 80.39503226682996 77.6773274356683 C 0.0 **** -0.24
34392 H 110.79139766602384 80.33379649193472 76.64197317753289 H 0.0 **** 0.06
34393 H 110.90890026937069 81.26476551661716 78.15418989480081 H 0.0 **** 0.06
34394 H 110.7560656901129 79.49212348368417 78.20997917732568 H 0.0 **** 0.06
34395 H 109.37080731098547 80.48890044618912 77.70279521647852 H 0.0 **** 0.06
34396 C 33.7289338795177 143.97207460268277 116.91519785125408 C 0.0 **** -0.24
34397 H 32.698041120411276 144.01515225782214 117.26513678748165 H 0.0 **** 0.06
34398 H 34.14411979987858 144.9798694456947 116.8833373696227 H 0.0 **** 0.06
34399 H 33.75700754343981 143.53532829135008 115.91766372161229 H 0.0 **** 0.06
34400 H 34.317877981125775 143.35826309604445 117.59733358580826 H 0.0 **** 0.06
34401 C 114.72569196931502 102.22846054448797 19.996655497908534 C 0.0 **** -0.24
34402 H 115.43528460495051 102.89925409310999 20.481423663185893 H 0.0 **** 0.06
34403 H 114.85869372453237 101.21859527453324 20.38495889917089 H 0.0 **** 0.06
34404 H 114.90013215246952 102.23195258034212 18.920890062348917 H 0.0 **** 0.06
34405 H 113.70905397767876 102.5651813840579 20.201231025947195 H 0.0 **** 0.06
34406 C 63.03285476775842 65.85203491155505 94.03453022932231 C 0.0 **** -0.24
34407 H 62.73168616825062 66.38730775828509 94.93518960962523 H 0.0 **** 0.06
34408 H 62.32848750986622 66.06932190156786 93.23081011483762 H 0.0 **** 0.06
34409 H 63.0388297845919 64.7812319119999 94.23387676094146 H 0.0 **** 0.06
34410 H 64.03230429884995 66.17311974941026 93.73919981912158 H 0.0 **** 0.06
34411 C 55.539557189803304 13.411478017617753 118.65375285986116 C 0.0 **** -0.24
34412 H 56.32127553962073 14.130885809990502 118.40683839920868 H 0.0 **** 0.06
34413 H 54.76728466301199 13.903330076244231 119.24385412713266 H 0.0 **** 0.06
34414 H 55.969920743283524 12.591398229433139 119.2283981456587 H 0.0 **** 0.06
34415 H 55.10251806448434 13.020451931152081 117.7353710028743 H 0.0 **** 0.06
34416 C 142.64546955401084 114.56328637242328 37.51297226015474 C 0.0 **** -0.24
34417 H 142.26019008989078 115.44035015300506 36.99282159032748 H 0.0 **** 0.06
34418 H 142.64876658199353 114.75161490684445 38.587510490865654 H 0.0 **** 0.06
34419 H 143.6615523987549 114.3592686484692 37.17664764247357 H 0.0 **** 0.06
34420 H 142.01046509580192 113.70428394012507 37.296156633519345 H 0.0 **** 0.06
34421 C 72.65448568802094 128.4061625068532 94.66523281988873 C 0.0 **** -0.24
34422 H 72.30694574127142 129.30745024906773 95.17095039891925 H 0.0 **** 0.06
34423 H 73.24091010871942 128.6846313442852 93.79012863440488 H 0.0 **** 0.06
34424 H 71.7967830259758 127.8104851064524 94.35529671823218 H 0.0 **** 0.06
34425 H 73.27344158633178 127.8236722992686 95.34835772710176 H 0.0 **** 0.06
34426 C 68.93176100712174 136.5970688936065 56.589349278720746 C 0.0 **** -0.24
34427 H 68.51441895885897 136.1849411298218 57.508368969821674 H 0.0 **** 0.06
34428 H 69.56615290602373 137.45061492587377 56.83006066290655 H 0.0 **** 0.06
34429 H 68.12204874499749 136.91991157716296 55.93487199633748 H 0.0 **** 0.06
34430 H 69.52472631950371 135.83408219819293 56.085907852225844 H 0.0 **** 0.06
34431 C 118.8708110239921 129.9931227266751 40.12768090947466 C 0.0 **** -0.24
34432 H 118.95225091658696 129.82530587551517 39.053215954481516 H 0.0 **** 0.06
34433 H 119.02252198404699 129.0516281952031 40.655091254701745 H 0.0 **** 0.06
34434 H 117.88082338820399 130.38495639248808 40.359639298966556 H 0.0 **** 0.06
34435 H 119.62911715614086 130.71135464616088 40.440272641089706 H 0.0 **** 0.06
34436 C 145.31614259098566 107.72899605430126 59.569937197370905 C 0.0 **** -0.24
34437 H 145.26064859349933 108.30991002718099 60.4900997929152 H 0.0 **** 0.06
34438 H 144.74383429732126 108.22914200379739 58.78848463347572 H 0.0 **** 0.06
34439 H 144.9043984391684 106.735381048217 59.74292791278418 H 0.0 **** 0.06
34440 H 146.35708070549987 107.64170580280256 59.25803798250138 H 0.0 **** 0.06
34441 C 10.939902002348248 131.68607054536403 45.14597325409821 C 0.0 **** -0.24
34442 H 11.555596039345687 131.01905512029055 44.54266559841706 H 0.0 **** 0.06
34443 H 11.526961533547649 132.06430894028773 45.98271077041548 H 0.0 **** 0.06
34444 H 10.076785334000277 131.13879484843537 45.525372508205194 H 0.0 **** 0.06
34445 H 10.600169590275783 132.5203941337144 44.5331765000477 H 0.0 **** 0.06
34446 C 62.182531793490654 24.483957843780225 112.07815996725489 C 0.0 **** -0.24
34447 H 63.096050637538454 24.881951070274653 112.51934989562545 H 0.0 **** 0.06
34448 H 62.34078599540479 23.442737711073114 111.79576109367383 H 0.0 **** 0.06
34449 H 61.92313375103821 25.0658498999791 111.19429113283192 H 0.0 **** 0.06
34450 H 61.37210857397683 24.54402369940363 112.80399956940798 H 0.0 **** 0.06
34451 C 123.02121831633428 70.34318420123026 3.4402770712335737 C 0.0 **** -0.24
34452 H 122.45288254277514 71.20228311770359 3.0824595396297667 H 0.0 **** 0.06
34453 H 124.08044679449938 70.49531073652372 3.229681617518253 H 0.0 **** 0.06
34454 H 122.6758904293111 69.44286125357439 2.9334703491677345 H 0.0 **** 0.06
34455 H 122.87577214709682 70.23400882835261 4.515441725791305 H 0.0 **** 0.06
34456 C 28.555743820912255 58.26365172372846 87.94997588483815 C 0.0 **** -0.24
34457 H 27.682343650414168 58.841303908814666 88.25004238463032 H 0.0 **** 0.06
34458 H 29.387357482270374 58.93982443612242 87.74829029194626 H 0.0 **** 0.06
34459 H 28.323131457882937 57.694691391154095 87.04976730490876 H 0.0 **** 0.06
34460 H 28.83118668757234 57.57784746207585 88.75163891921079 H 0.0 **** 0.06
34461 C 20.93323041580871 6.827171517223839 20.109638820314366 C 0.0 **** -0.24
34462 H 20.472079873902175 6.059529914653162 19.488668300419803 H 0.0 **** 0.06
34463 H 21.75408691672709 7.292648335319498 19.56308980563294 H 0.0 **** 0.06
34464 H 21.317082447623022 6.373670144324578 21.02409112216568 H 0.0 **** 0.06
34465 H 20.190573224129253 7.583874131479824 20.363044251782654 H 0.0 **** 0.06
34466 C 17.34855453688914 18.475987705146466 156.59408572901046 C 0.0 **** -0.24
34467 H 16.493861499271645 18.446228621308684 157.27050282603273 H 0.0 **** 0.06
34468 H 17.668211748288854 17.45804288209097 156.36740862208492 H 0.0 **** 0.06
34469 H 18.1681053637879 19.01760366998466 157.067213056024 H 0.0 **** 0.06
34470 H 17.064039536208213 18.982075647201768 155.67121841190024 H 0.0 **** 0.06
34471 C 12.960686373208034 4.271768259180249 12.21287479889103 C 0.0 **** -0.24
34472 H 12.905430580246076 4.648803672792383 13.234890453911007 H 0.0 **** 0.06
34473 H 12.557594098870027 3.2588462996307612 12.178412851571224 H 0.0 **** 0.06
34474 H 13.999315226628198 4.26072034067343 11.885190731055367 H 0.0 **** 0.06
34475 H 12.378290156786477 4.918022439717873 11.556015572780069 H 0.0 **** 0.06
34476 C 84.28396994366511 115.67902820352353 50.46595742469013 C 0.0 **** -0.24
34477 H 83.25222256828684 115.84337050353756 50.15357328986188 H 0.0 **** 0.06
34478 H 84.32629677845551 115.61048043822251 51.55368236470146 H 0.0 **** 0.06
34479 H 84.90155497781859 116.51188605019757 50.1294037207107 H 0.0 **** 0.06
34480 H 84.65282604665069 114.752350836749 50.02764240897608 H 0.0 **** 0.06
34481 C 154.34960580963107 73.34078054567601 139.11736307883007 C 0.0 **** -0.24
34482 H 154.554172720312 72.27205311149282 139.0446173361668 H 0.0 **** 0.06
34483 H 154.97771637473755 73.7780124221822 139.89326916121914 H 0.0 **** 0.06
34484 H 153.2994526198993 73.49323239949558 139.36937619492946 H 0.0 **** 0.06
34485 H 154.56595823225027 73.81769996353671 138.16171443179593 H 0.0 **** 0.06
34486 C 52.8991998582316 124.89664490861318 97.92423011577196 C 0.0 **** -0.24
34487 H 53.796664845239135 124.48238221742108 98.38240894763601 H 0.0 **** 0.06
34488 H 52.01923604543201 124.40522521556659 98.33989734403025 H 0.0 **** 0.06
34489 H 52.93231239494379 124.7335109531409 96.84727156889454 H 0.0 **** 0.06
34490 H 52.84779912310178 125.96700130127334 98.1274370501188 H 0.0 **** 0.06
34491 C 92.99982630352542 108.23500395964936 20.760385982856235 C 0.0 **** -0.24
34492 H 92.60557200565665 108.1529082815535 21.773661724376012 H 0.0 **** 0.06
34493 H 92.7636899992508 109.21991427216574 20.357787955385646 H 0.0 **** 0.06
34494 H 92.54756263209936 107.46792659572611 20.132043134570324 H 0.0 **** 0.06
34495 H 94.0813680154173 108.09877499659979 20.778772577630605 H 0.0 **** 0.06
34496 C 49.15367610086017 142.85484424922993 5.413494354785058 C 0.0 **** -0.24
34497 H 48.90709137225903 142.17798241224443 4.59551276618987 H 0.0 **** 0.06
34498 H 48.35828325263998 142.82910455099545 6.158102661434214 H 0.0 **** 0.06
34499 H 49.25872583501824 143.8682555344513 5.026870560183198 H 0.0 **** 0.06
34500 H 50.0924811138141 142.54182300152956 5.872726067858736 H 0.0 **** 0.06
34501 C 162.75389413721376 75.53503960293943 0.8851461457695393 C 0.0 **** -0.24
34502 H 162.75359290783592 76.10562197373707 1.8142244755570403 H 0.0 **** 0.06
34503 H 161.7599066500768 75.11866578900194 0.7143900277574176 H 0.0 **** 0.06
34504 H 163.4794229290577 74.72471688301334 0.9575334533079172 H 0.0 **** 0.06
34505 H 163.02109067146398 76.19072260715848 0.05627240790292376 H 0.0 **** 0.06
34506 C 128.67385423187045 33.45795354406971 13.401079040016668 C 0.0 **** -0.24
34507 H 128.78392788900146 32.715645767074975 14.19186081858399 H 0.0 **** 0.06
34508 H 127.65072875003273 33.43902642437787 13.025317312766731 H 0.0 **** 0.06
34509 H 129.3642968536422 33.228925001310174 12.590042213693295 H 0.0 **** 0.06
34510 H 128.89697044938498 34.44743157006313 13.79994648749502 H 0.0 **** 0.06
34511 C 63.35521298328072 144.8563790263279 36.20643517446712 C 0.0 **** -0.24
34512 H 64.25244121575506 145.23750867833257 35.719870162801726 H 0.0 **** 0.06
34513 H 62.4775632735669 145.13767620658103 35.624191455340195 H 0.0 **** 0.06
34514 H 63.277843390896535 145.27981825468407 37.20770936966204 H 0.0 **** 0.06
34515 H 63.41299624200907 143.76958717496598 36.27503878014704 H 0.0 **** 0.06
34516 C 20.200784653709945 41.35683640575664 10.676043957819552 C 0.0 **** -0.24
34517 H 20.934652415655762 41.77342024264274 9.986883716039628 H 0.0 **** 0.06
34518 H 20.714478717824193 40.93095345950415 11.539057306079108 H 0.0 **** 0.06
34519 H 19.63030488898886 40.57752675564663 10.171341922091173 H 0.0 **** 0.06
34520 H 19.524577495829476 42.14563563363134 11.007987567883418 H 0.0 **** 0.06
34521 C 69.49681056462413 87.46755882684113 73.95340981695962 C 0.0 **** -0.24
34522 H 69.69066727848542 86.4899010452061 74.39461123462388 H 0.0 **** 0.06
34523 H 69.8141998116377 88.24856806694072 74.64543332386444 H 0.0 **** 0.06
34524 H 68.43015821333876 87.57084166773996 73.75423333318527 H 0.0 **** 0.06
34525 H 70.0520285693438 87.56202864227535 73.02022480057138 H 0.0 **** 0.06
34526 C 159.41145454864122 71.87821617855965 118.79055309948609 C 0.0 **** -0.24
34527 H 158.83025841111981 70.95609283699362 118.75736452065252 H 0.0 **** 0.06
34528 H 160.2408863482266 71.75831807292633 119.48875095227427 H 0.0 **** 0.06
34529 H 158.7735833213873 72.69758655323741 119.12113943515001 H 0.0 **** 0.06
34530 H 159.80106301090257 72.09797990950756 117.79658931585337 H 0.0 **** 0.06
34531 C 125.11304387664029 40.09624794700471 15.878066177544724 C 0.0 **** -0.24
34532 H 125.1925875409585 40.959970437735166 16.537858650473254 H 0.0 **** 0.06
34533 H 125.70774599932344 40.26857148409772 14.980715156528788 H 0.0 **** 0.06
34534 H 124.06946387449122 39.946661174561655 15.599838833496335 H 0.0 **** 0.06
34535 H 125.48143269676424 39.20950594396206 16.39486515524851 H 0.0 **** 0.06
34536 C 1.5579149257749805 139.45647895535478 41.32734971896656 C 0.0 **** -0.24
34537 H 1.065062628533127 138.7095946756349 41.95014692289499 H 0.0 **** 0.06
34538 H 0.8176242924415078 139.95207856849476 40.70015626800631 H 0.0 **** 0.06
34539 H 2.30061659797218 138.96824683255693 40.69585269103138 H 0.0 **** 0.06
34540 H 2.0491227266309124 140.19276988567265 41.963324098400676 H 0.0 **** 0.06
34541 C 14.330350078365456 52.76989750806629 51.96136304314325 C 0.0 **** -0.24
34542 H 13.788216856382604 53.338220940208004 52.71694883786557 H 0.0 **** 0.06
34543 H 13.721590523659842 51.92485432457501 51.6368931142236 H 0.0 **** 0.06
34544 H 15.265129666497614 52.40252769735952 52.38480536381502 H 0.0 **** 0.06
34545 H 14.546188631183298 53.41242012117017 51.10748993822028 H 0.0 **** 0.06
34546 C 55.86719621931785 115.8815794849304 124.98079725186264 C 0.0 **** -0.24
34547 H 55.95191148991026 116.84052539464653 125.49158870420479 H 0.0 **** 0.06
34548 H 56.20348869278861 115.08532743036625 125.64597011506478 H 0.0 **** 0.06
34549 H 56.486306969431254 115.89197463699111 124.0836709062286 H 0.0 **** 0.06
34550 H 54.82765722120284 115.70799647240898 124.70351499195414 H 0.0 **** 0.06
34551 C 144.930794862966 23.48966425881207 56.566158492899774 C 0.0 **** -0.24
34552 H 144.78467471309335 23.376323951631576 55.49182114299481 H 0.0 **** 0.06
34553 H 144.26113663556043 22.812803313204483 57.09692113326901 H 0.0 **** 0.06
34554 H 144.71411973299152 24.517536907985175 56.85510230497181 H 0.0 **** 0.06
34555 H 145.96387637808772 23.25030158896172 56.81839241898223 H 0.0 **** 0.06
34556 C 105.15626549539928 90.83280224867914 121.71748891918708 C 0.0 **** -0.24
34557 H 105.70939968972337 91.61302472058311 122.23999949499924 H 0.0 **** 0.06
34558 H 105.82627547903692 90.30592815987973 121.03874217314336 H 0.0 **** 0.06
34559 H 104.34315091251665 91.28370709912772 121.1476754596111 H 0.0 **** 0.06
34560 H 104.7462254544854 90.13014796907078 122.44233715068955 H 0.0 **** 0.06
34561 C 144.59435212676667 113.07657635801164 110.94510903109327 C 0.0 **** -0.24
34562 H 144.23255161107232 113.99157106140811 110.4753112476617 H 0.0 **** 0.06
34563 H 143.84738108626945 112.29073996779115 110.831309650539 H 0.0 **** 0.06
34564 H 144.77379839937737 113.25903023399891 112.00445527397105 H 0.0 **** 0.06
34565 H 145.5236821018986 112.76716771970266 110.46688110698568 H 0.0 **** 0.06
34566 C 7.574820769565434 117.4420268468372 9.254965075278307 C 0.0 **** -0.24
34567 H 7.945484285988492 116.82537389626728 8.43633845526756 H 0.0 **** 0.06
34568 H 6.564534084975939 117.78046576063042 9.02493730868207 H 0.0 **** 0.06
34569 H 8.226933708401226 118.3062213582198 9.383640767094448 H 0.0 **** 0.06
34570 H 7.5613476452839805 116.85700360445128 10.174602035507831 H 0.0 **** 0.06
34571 C 38.75892006900946 108.2627872772058 60.18559355728995 C 0.0 **** -0.24
34572 H 38.99491769827675 107.94971798718825 61.20260417276607 H 0.0 **** 0.06
34573 H 39.44945200465999 109.04870088739597 59.8780771707258 H 0.0 **** 0.06
34574 H 37.73825795635406 108.64266602429547 60.15009959207575 H 0.0 **** 0.06
34575 H 38.854030142103284 107.4110767324321 59.51173222792359 H 0.0 **** 0.06
34576 C 74.02436330380117 72.51455994598416 141.58618327881575 C 0.0 **** -0.24
34577 H 74.7724915758602 72.96425446610243 142.23968523726663 H 0.0 **** 0.06
34578 H 74.34386346170282 71.51093800653422 141.30515923359607 H 0.0 **** 0.06
34579 H 73.91119685419432 73.1243650198781 140.69032226487485 H 0.0 **** 0.06
34580 H 73.06996487690185 72.45945798270867 142.11074719464477 H 0.0 **** 0.06
34581 C 135.03177211932768 12.050182431435957 72.74841989171674 C 0.0 **** -0.24
34582 H 134.71246111973915 11.217616931940995 72.12202942881036 H 0.0 **** 0.06
34583 H 136.04165678228466 12.348622864987647 72.46844827282939 H 0.0 **** 0.06
34584 H 135.01984211746424 11.742782403752159 73.79413818829781 H 0.0 **** 0.06
34585 H 134.35174766160594 12.890266893084402 72.60919822071315 H 0.0 **** 0.06
34586 C 8.201969637228189 44.437045231845175 114.51710664931147 C 0.0 **** -0.24
34587 H 8.97645833411783 43.93141761706384 113.93974034283659 H 0.0 **** 0.06
34588 H 7.748188428219365 45.21929325209079 113.90709061606901 H 0.0 **** 0.06
34589 H 8.64502785900553 44.88097861501109 115.40749553121452 H 0.0 **** 0.06
34590 H 7.439450954967981 43.715557760513704 114.81069811038805 H 0.0 **** 0.06
34591 C 103.6570069093448 146.1224681234022 109.5925025503006 C 0.0 **** -0.24
34592 H 102.74108851915474 146.3232266411399 109.03698804368338 H 0.0 **** 0.06
34593 H 103.60123850201924 146.60073125657908 110.57070863039291 H 0.0 **** 0.06
34594 H 104.51037874139655 146.51808073495465 109.04152792248235 H 0.0 **** 0.06
34595 H 103.7747936216611 145.04585638542565 109.7198852213244 H 0.0 **** 0.06
34596 C 43.19581696473524 49.15719126818959 129.95471633979992 C 0.0 **** -0.24
34597 H 43.8547578274986 48.79525756410166 129.16511783035662 H 0.0 **** 0.06
34598 H 42.40423514238594 48.42768381553145 130.13005314117572 H 0.0 **** 0.06
34599 H 42.754409203092564 50.10659917660931 129.65087151024352 H 0.0 **** 0.06
34600 H 43.769741181514306 49.29964122152336 130.8706294767585 H 0.0 **** 0.06
34601 C 7.157435597594144 65.62543586002099 41.86191235778074 C 0.0 **** -0.24
34602 H 7.589312079617741 66.03767094299496 42.77402792383249 H 0.0 **** 0.06
34603 H 7.397439234751232 64.56462424521128 41.79430459502602 H 0.0 **** 0.06
34604 H 7.568397833140068 66.14830202984558 40.99826783189846 H 0.0 **** 0.06
34605 H 6.075345579628504 65.75362585977118 41.8825609195446 H 0.0 **** 0.06
34606 C 150.36345955341366 71.14803219219141 153.74446359305085 C 0.0 **** -0.24
34607 H 149.85363826586402 71.92555020500242 153.1743829926831 H 0.0 **** 0.06
34608 H 149.98729098739872 70.17032854545201 153.4404723155737 H 0.0 **** 0.06
34609 H 150.17692058131064 71.2955262362616 154.80795668595889 H 0.0 **** 0.06
34610 H 151.4346093626981 71.20071112192403 153.55237809099938 H 0.0 **** 0.06
34611 C 127.91201289708621 127.8977762500619 121.97718001086707 C 0.0 **** -0.24
34612 H 128.0517845960792 127.87605049778375 120.8960381408493 H 0.0 **** 0.06
34613 H 127.72495194574137 128.92336757796923 122.29785980703807 H 0.0 **** 0.06
34614 H 128.80931367362606 127.52111009590777 122.46732157753183 H 0.0 **** 0.06
34615 H 127.06168825090435 127.27185507830643 122.24543455257216 H 0.0 **** 0.06
34616 C 128.973700235257 62.43069493540342 81.51849451118967 C 0.0 **** -0.24
34617 H 128.08650263403274 63.04730667839658 81.66160363692832 H 0.0 **** 0.06
34618 H 129.8326899365103 62.91680690195936 81.98019320279649 H 0.0 **** 0.06
34619 H 129.1572913930308 62.3012330332661 80.45186394696337 H 0.0 **** 0.06
34620 H 128.81580285663892 61.45585303695421 81.97988972975726 H 0.0 **** 0.06
34621 C 38.61931680906224 110.26075418218153 77.73863394363093 C 0.0 **** -0.24
34622 H 38.40611409830656 111.06700316951608 78.43984218859151 H 0.0 **** 0.06
34623 H 38.14553674737958 110.47610089758547 76.78049453598564 H 0.0 **** 0.06
34624 H 38.229448115038295 109.32259565432344 78.13445695388032 H 0.0 **** 0.06
34625 H 39.69729840531383 110.17602338136817 77.59996442272995 H 0.0 **** 0.06
34626 C 24.56400157479542 110.89744161300385 150.86725136192143 C 0.0 **** -0.24
34627 H 24.5593592296527 111.93306043117596 150.52567559993724 H 0.0 **** 0.06
34628 H 23.53978609861494 110.56997696772586 151.04608766779046 H 0.0 **** 0.06
34629 H 25.13706298114247 110.82186591066957 151.79147092427365 H 0.0 **** 0.06
34630 H 25.02034761352155 110.26613873777546 150.1040188512837 H 0.0 **** 0.06
34631 C 111.83173767731952 59.8875295004098 63.9427479268181 C 0.0 **** -0.24
34632 H 111.87412963811775 60.524742683623145 63.059821477208956 H 0.0 **** 0.06
34633 H 111.75154220054318 58.8454210802432 63.63513688971129 H 0.0 **** 0.06
34634 H 110.9633264899249 60.157726306986774 64.54348792809871 H 0.0 **** 0.06
34635 H 112.73809197538338 60.02444106758455 64.53225785402729 H 0.0 **** 0.06
34636 C 11.325186610355516 42.28676359003509 109.36085207670067 C 0.0 **** -0.24
34637 H 11.40798649904088 43.26298665599188 108.88254822335739 H 0.0 **** 0.06
34638 H 10.58380795632874 41.68542817468875 108.83372562517968 H 0.0 **** 0.06
34639 H 11.018271362609347 42.415854005488484 110.39841100502656 H 0.0 **** 0.06
34640 H 12.291134792330837 41.78321331760117 109.32794194609778 H 0.0 **** 0.06
34641 C 114.55707894058568 104.7232689104778 49.770459650501834 C 0.0 **** -0.24
34642 H 114.78761300853625 105.48774852526319 50.51277955016923 H 0.0 **** 0.06
34643 H 114.10686513795255 105.19189841609492 48.895336930187824 H 0.0 **** 0.06
34644 H 113.85849860516825 104.00262258370284 50.197026502095554 H 0.0 **** 0.06
34645 H 115.47412259328885 104.21136617844394 49.47848637655326 H 0.0 **** 0.06
34646 C 42.81713111150907 28.119560172312333 91.644369062652 C 0.0 **** -0.24
34647 H 43.28767486056168 27.165402402528315 91.8823383825885 H 0.0 **** 0.06
34648 H 43.562447234360974 28.91365471846501 91.6940339212197 H 0.0 **** 0.06
34649 H 42.02268257217983 28.322113090335222 92.3630301136317 H 0.0 **** 0.06
34650 H 42.39706162887512 28.07714246766554 90.63986112360666 H 0.0 **** 0.06
34651 C 60.36186161772068 103.10882533834084 35.011760882660624 C 0.0 **** -0.24
34652 H 61.15892742707129 103.83540035299865 34.857214224339614 H 0.0 **** 0.06
34653 H 60.53940058344567 102.23497418829857 34.38451854256323 H 0.0 **** 0.06
34654 H 59.40444799990429 103.55809804873715 34.745832160445076 H 0.0 **** 0.06
34655 H 60.34370664547983 102.8077122401121 36.058939539462926 H 0.0 **** 0.06
34656 C 46.268239033322956 57.144450580323095 131.38231754447662 C 0.0 **** -0.24
34657 H 46.13372345410686 57.30788138423128 132.4515166764583 H 0.0 **** 0.06
34658 H 46.54745077395552 58.08365868501883 130.90386397030784 H 0.0 **** 0.06
34659 H 45.33525608699131 56.78077220270278 130.9508053891999 H 0.0 **** 0.06
34660 H 47.05465823960847 56.40671757385627 131.223158199507 H 0.0 **** 0.06
34661 C 45.73580056824477 97.32880215913292 38.03674747275831 C 0.0 **** -0.24
34662 H 46.010376113570544 96.32567621555529 37.71008024901933 H 0.0 **** 0.06
34663 H 45.3427545970456 97.28471597166822 39.05252162690803 H 0.0 **** 0.06
34664 H 44.974822155484276 97.7323588295373 37.36859873704131 H 0.0 **** 0.06
34665 H 46.61707510148949 97.97082476068215 38.015817411048786 H 0.0 **** 0.06
34666 C 50.29474807276796 83.44092435899086 120.26711859592788 C 0.0 **** -0.24
34667 H 49.95184897697635 82.6898996336636 120.97828588009486 H 0.0 **** 0.06
34668 H 51.3458918923468 83.26713208239659 120.03445186983626 H 0.0 **** 0.06
34669 H 50.17816237368203 84.4339038019254 120.7021892571623 H 0.0 **** 0.06
34670 H 49.70471820478562 83.37329589500712 119.35330078493587 H 0.0 **** 0.06
34671 C 22.26220055775363 2.2527951459380233 137.30172351326758 C 0.0 **** -0.24
34672 H 22.42552850137298 1.1870738514493837 137.139381337421 H 0.0 **** 0.06
34673 H 22.056681453689038 2.4314587758598236 138.35756303084543 H 0.0 **** 0.06
34674 H 21.412888056867928 2.5846477033219344 136.7049170137799 H 0.0 **** 0.06
34675 H 23.15319999848515 2.8057732383410894 137.0059194335845 H 0.0 **** 0.06
34676 C 4.722993286495267 125.354690274646 88.4755512146968 C 0.0 **** -0.24
34677 H 5.477175607309931 125.44137188496799 89.25741128302883 H 0.0 **** 0.06
34678 H 4.249088215608509 124.37434531904938 88.53432738635803 H 0.0 **** 0.06
34679 H 5.195363517843788 125.47233379203817 87.50049469767407 H 0.0 **** 0.06
34680 H 3.9696610253216704 126.13107881784032 88.61060010583037 H 0.0 **** 0.06
34681 C 158.3465852352258 138.73156842162936 127.27439767797577 C 0.0 **** -0.24
34682 H 158.872525590701 138.4549499695712 128.18906640494677 H 0.0 **** 0.06
34683 H 158.9234563668159 139.48557424572948 126.73846504830442 H 0.0 **** 0.06
34684 H 157.36624716718393 139.13555383627397 127.52769182072149 H 0.0 **** 0.06
34685 H 158.22505470717374 137.84993248187232 126.6453744312588 H 0.0 **** 0.06
34686 C 116.74908629069577 19.626450295358467 134.24821926583772 C 0.0 **** -0.24
34687 H 115.86668464241222 18.991646748646872 134.3355272159907 H 0.0 **** 0.06
34688 H 116.87308324738257 19.9357820389111 133.21043341036295 H 0.0 **** 0.06
34689 H 117.62984832983801 19.06884778349513 134.5684294438685 H 0.0 **** 0.06
34690 H 116.62650310317287 20.506647995857037 134.8793081854375 H 0.0 **** 0.06
34691 C 95.14600482289084 110.55509756588972 86.04472947003248 C 0.0 **** -0.24
34692 H 95.43056470772507 110.00849917612143 86.943869465256 H 0.0 **** 0.06
34693 H 95.61464120630798 111.53895362972301 86.05395058154119 H 0.0 **** 0.06
34694 H 94.06248290958158 110.66991775922696 86.01786988819524 H 0.0 **** 0.06
34695 H 95.47416981450208 110.00351564168804 85.16426996150295 H 0.0 **** 0.06
34696 C 104.27035469860999 151.26821426941967 23.31662306778864 C 0.0 **** -0.24
34697 H 103.40476368429756 151.5634699817229 22.72220472508721 H 0.0 **** 0.06
34698 H 103.94048866176354 150.95209110202356 24.30657883269282 H 0.0 **** 0.06
34699 H 104.94955967936107 152.11504575057307 23.4132402648616 H 0.0 **** 0.06
34700 H 104.78395765631359 150.44357545347154 22.823992747284535 H 0.0 **** 0.06
34701 C 118.68591590283 107.87996915285015 36.088241284130106 C 0.0 **** -0.24
34702 H 118.17092965592224 106.99489480586786 36.46208406989399 H 0.0 **** 0.06
34703 H 119.64281458011232 107.5860746728946 35.654158477468854 H 0.0 **** 0.06
34704 H 118.85637748304862 108.57529931991036 36.90948036645045 H 0.0 **** 0.06
34705 H 118.07359415980028 108.36057732962743 35.325048171021365 H 0.0 **** 0.06
34706 C 66.8948478930165 112.27527436538858 112.5780255835995 C 0.0 **** -0.24
34707 H 66.9131692918478 111.65729279040937 111.67991869837351 H 0.0 **** 0.06
34708 H 67.08378653371096 113.31477672675615 112.30753357501106 H 0.0 **** 0.06
34709 H 67.66409627445222 111.93358766291934 113.26925704002068 H 0.0 **** 0.06
34710 H 65.91761637967096 112.19606011422096 113.05394628836211 H 0.0 **** 0.06
34711 C 47.28864412336907 162.99565559651853 135.028090986131 C 0.0 **** -0.24
34712 H 47.91803651827735 163.7882932245642 134.62403449660488 H 0.0 **** 0.06
34713 H 47.74126346113735 162.60011164825937 135.93765714200254 H 0.0 **** 0.06
34714 H 47.1929396611597 162.1977648496238 134.292439007436 H 0.0 **** 0.06
34715 H 46.30193703654925 163.3977824319465 135.2585014839767 H 0.0 **** 0.06
34716 C 82.53233656402489 114.4905179138043 144.14534292868652 C 0.0 **** -0.24
34717 H 83.41699481969124 114.29338186471068 144.74999983493632 H 0.0 **** 0.06
34718 H 81.68336548112296 113.94208748096793 144.55365533482842 H 0.0 **** 0.06
34719 H 82.71462471711052 114.16857672066024 143.11988558513667 H 0.0 **** 0.06
34720 H 82.31543459770455 115.55891627287312 144.15680398765357 H 0.0 **** 0.06
34721 C 96.6043314471404 105.9628617594474 100.34615823619708 C 0.0 **** -0.24
34722 H 95.59989637960956 105.58298925497121 100.15941796137867 H 0.0 **** 0.06
34723 H 96.99264889081593 105.52480782147214 101.26632355015508 H 0.0 **** 0.06
34724 H 96.56850367538357 107.04813022133027 100.44685394804861 H 0.0 **** 0.06
34725 H 97.25527196729234 105.69628185056015 99.51388398560613 H 0.0 **** 0.06
34726 C 50.1611975176628 132.21006684796717 21.620711474405084 C 0.0 **** -0.24
34727 H 50.88141095847169 132.54947684756806 20.876914271705175 H 0.0 **** 0.06
34728 H 49.16330191390773 132.20193636843675 21.182697657707763 H 0.0 **** 0.06
34729 H 50.178091894191255 132.8847126583485 22.476739201710302 H 0.0 **** 0.06
34730 H 50.42368978496586 131.2027063529507 21.946307153907014 H 0.0 **** 0.06
34731 C 104.47525438839685 97.64754980191435 52.29384467290983 C 0.0 **** -0.24
34732 H 103.93351977716316 98.10190081592424 53.1231959928472 H 0.0 **** 0.06
34733 H 105.43713993781714 97.27540614883443 52.64825006774187 H 0.0 **** 0.06
34734 H 104.63838454240869 98.3926466002429 51.51457758254918 H 0.0 **** 0.06
34735 H 103.89211142897156 96.82022136790201 51.88836491706877 H 0.0 **** 0.06
34736 C 2.291782798949015 103.11486003107987 152.56084086018842 C 0.0 **** -0.24
34737 H 2.3619825387064566 102.09485518764421 152.18286999522468 H 0.0 **** 0.06
34738 H 3.292912935662514 103.50437064301681 152.741892642695 H 0.0 **** 0.06
34739 H 1.7255511235536858 103.1182383270035 153.4923960880422 H 0.0 **** 0.06
34740 H 1.784861430485762 103.73995943671727 151.8254237480017 H 0.0 **** 0.06
34741 C 127.21047815063793 1.0100144417786225 84.7578399284387 C 0.0 **** -0.24
34742 H 127.93659333775861 0.8628725359170062 83.95905659381512 H 0.0 **** 0.06
34743 H 127.17847986442825 2.0651025550093323 85.03033038787817 H 0.0 **** 0.06
34744 H 127.50198461144572 0.41907933276306153 85.62655424198579 H 0.0 **** 0.06
34745 H 126.22593025730464 0.6926093994383677 84.41671782314594 H 0.0 **** 0.06
34746 C 37.07238312411641 1.1702918821406598 87.29249197075359 C 0.0 **** -0.24
34747 H 36.693910814016704 2.1445596621873335 86.98245024271985 H 0.0 **** 0.06
34748 H 36.46471671337571 0.7894300165422976 88.11427945859757 H 0.0 **** 0.06
34749 H 38.107190784615966 1.2703285727484825 87.62060724627771 H 0.0 **** 0.06
34750 H 37.02270704970039 0.4777292295243427 86.45217112714909 H 0.0 **** 0.06
34751 C 132.92893730059154 37.92308396060977 107.62649266554268 C 0.0 **** -0.24
34752 H 133.0438777648657 38.35895987406113 106.63403725817886 H 0.0 **** 0.06
34753 H 132.91999195017635 38.717137178074935 108.37270999614327 H 0.0 **** 0.06
34754 H 133.75991034814373 37.24660254335545 107.82430448832093 H 0.0 **** 0.06
34755 H 131.99067424734457 37.36923178198164 107.67314133292666 H 0.0 **** 0.06
34756 C 83.36354258087928 151.36980629218775 85.34921490052177 C 0.0 **** -0.24
34757 H 84.31623408523707 151.5331974819564 84.84542816683205 H 0.0 **** 0.06
34758 H 83.17645873186775 150.29987186396218 85.43409584255267 H 0.0 **** 0.06
34759 H 82.5638041659551 151.8349423871614 84.77235984538035 H 0.0 **** 0.06
34760 H 83.3993518503624 151.81353328776788 86.34408067058342 H 0.0 **** 0.06
34761 C 124.586037297758 86.44766555524077 38.33512004577162 C 0.0 **** -0.24
34762 H 125.26157528278324 85.7778791722064 38.86856219892809 H 0.0 **** 0.06
34763 H 124.29288787128655 87.26607844601378 38.99362718171011 H 0.0 **** 0.06
34764 H 123.69971688072815 85.89603636110692 38.023135784951194 H 0.0 **** 0.06
34765 H 125.09185077317923 86.84970400141337 37.4577104216618 H 0.0 **** 0.06
34766 C 50.054887704053726 59.009833534692746 49.9317963330335 C 0.0 **** -0.24
34767 H 50.47188042277024 59.097214720433826 50.93506870680295 H 0.0 **** 0.06
34768 H 49.18903966443952 59.66680509466234 49.84031712775487 H 0.0 **** 0.06
34769 H 49.748807618420315 57.978594538242334 49.753757035520266 H 0.0 **** 0.06
34770 H 50.80809449881366 59.296663787475524 49.199046895375375 H 0.0 **** 0.06
34771 C 140.41576271166537 55.538323927929625 139.76223185976056 C 0.0 **** -0.24
34772 H 139.53861896590945 56.15303135926308 139.5605700801163 H 0.0 **** 0.06
34773 H 140.48248523494397 55.34040518446244 140.83241275857426 H 0.0 **** 0.06
34774 H 141.31112992428677 56.065693612760526 139.4325522612225 H 0.0 **** 0.06
34775 H 140.3296950825029 54.59535154247115 139.221864101228 H 0.0 **** 0.06
34776 C 98.40278226231385 36.07590143109712 68.06890470915211 C 0.0 **** -0.24
34777 H 98.67003814520496 35.044149959158744 67.83845064084151 H 0.0 **** 0.06
34778 H 99.03794087028768 36.444673441802536 68.87485609052847 H 0.0 **** 0.06
34779 H 97.35918807995697 36.120621377884845 68.37859508914339 H 0.0 **** 0.06
34780 H 98.54544603695052 36.69395162278704 67.18205754867934 H 0.0 **** 0.06
34781 C 75.61608309633345 96.7671311098398 73.46771231804811 C 0.0 **** -0.24
34782 H 74.99463335037262 97.6446567276351 73.28634283118662 H 0.0 **** 0.06
34783 H 76.45387765937255 96.7649088109091 72.76929608444989 H 0.0 **** 0.06
34784 H 75.02090362175429 95.86507449665716 73.3241395862594 H 0.0 **** 0.06
34785 H 75.9934360141869 96.79431480211608 74.48945232779954 H 0.0 **** 0.06
34786 C 6.483181017122391 71.04861877076989 40.24581505392274 C 0.0 **** -0.24
34787 H 6.012862800616411 71.16287394271237 41.22265045338361 H 0.0 **** 0.06
34788 H 6.670641429513218 69.99210382943093 40.05481604689362 H 0.0 **** 0.06
34789 H 7.426939486016501 71.593709587728 40.23175068266913 H 0.0 **** 0.06
34790 H 5.82162893227693 71.4465094320444 39.47629135864018 H 0.0 **** 0.06
34791 C 119.75811485940017 155.17697847136697 55.497773557544406 C 0.0 **** -0.24
34792 H 120.23230219033564 154.57443902360248 56.27203283151283 H 0.0 **** 0.06
34793 H 118.68625562829618 154.97593692784775 55.487430358854795 H 0.0 **** 0.06
34794 H 120.18426839430617 154.92147929207368 54.52721123940893 H 0.0 **** 0.06
34795 H 119.92860773061182 156.23329170634725 55.703878781937874 H 0.0 **** 0.06
34796 C 154.794944179845 56.236703399994894 69.10920854857999 C 0.0 **** -0.24
34797 H 153.84891091362454 56.73806642650288 69.3120706014486 H 0.0 **** 0.06
34798 H 155.32659531648244 56.77059519866137 68.32084092762027 H 0.0 **** 0.06
34799 H 154.60132218911133 55.21268453455221 68.78878107750197 H 0.0 **** 0.06
34800 H 155.40197509180632 56.2259795076873 70.01425236741085 H 0.0 **** 0.06
34801 C 161.6543696186697 130.3013643380238 142.1727740218956 C 0.0 **** -0.24
34802 H 162.29865383680868 130.64511645790492 142.98267661830596 H 0.0 **** 0.06
34803 H 161.87975646210066 130.86474731400747 141.2668969493651 H 0.0 **** 0.06
34804 H 160.61155367862884 130.4566210877253 142.44745034053602 H 0.0 **** 0.06
34805 H 161.8297583223336 129.24088253177928 141.99350891219768 H 0.0 **** 0.06
34806 C 130.0510587337105 137.07795572632602 104.7002846707206 C 0.0 **** -0.24
34807 H 130.3570253187306 136.032613545609 104.71253137622017 H 0.0 **** 0.06
34808 H 130.86078414991428 137.68907099937707 104.30064264177884 H 0.0 **** 0.06
34809 H 129.81988764826232 137.4004527437621 105.71544990651623 H 0.0 **** 0.06
34810 H 129.16650236934902 137.19098194302506 104.07307897591679 H 0.0 **** 0.06
34811 C 62.98537370187438 139.20996052774012 149.91686210347393 C 0.0 **** -0.24
34812 H 62.91154656425417 140.02577741204232 150.63627313672185 H 0.0 **** 0.06
34813 H 62.2959598357362 138.41341639945142 150.19966393962468 H 0.0 **** 0.06
34814 H 64.00525306928353 138.8233662865432 149.9101634958744 H 0.0 **** 0.06
34815 H 62.72968403532863 139.57712107146892 148.9231011791695 H 0.0 **** 0.06
34816 C 133.54073461784182 148.55517760313208 107.05148308471757 C 0.0 **** -0.24
34817 H 133.99546177189808 147.63944437781163 106.67548748699448 H 0.0 **** 0.06
34818 H 132.47517538218077 148.55145259038792 106.82351055490335 H 0.0 **** 0.06
34819 H 134.01177640200677 149.4159758316892 106.57624848865987 H 0.0 **** 0.06
34820 H 133.68170342490686 148.61403343876373 108.13144266203233 H 0.0 **** 0.06
34821 C 21.620471788048853 131.42654156433989 154.98898347861058 C 0.0 **** -0.24
34822 H 21.705445994266142 130.8629472730216 155.91770070846465 H 0.0 **** 0.06
34823 H 22.296804526314112 131.00467745861383 154.24519952161813 H 0.0 **** 0.06
34824 H 21.88274734111078 132.4681431677128 155.17031865124648 H 0.0 **** 0.06
34825 H 20.59562425451584 131.36893298944483 154.6215958683296 H 0.0 **** 0.06
34826 C 59.581978599570874 50.12925664119376 104.62637359177572 C 0.0 **** -0.24
34827 H 58.56248440282616 50.51554711491548 104.58800475367642 H 0.0 **** 0.06
34828 H 59.61419279285417 49.255264305353364 105.27676692877097 H 0.0 **** 0.06
34829 H 60.24671542044635 50.89927647752751 105.01809577783428 H 0.0 **** 0.06
34830 H 59.901901698322774 49.84937156189932 103.62309228338782 H 0.0 **** 0.06
34831 C 23.798811292030337 143.35238784485767 99.05019736536724 C 0.0 **** -0.24
34832 H 24.5080831720299 142.69631418356556 99.55523164231386 H 0.0 **** 0.06
34833 H 24.3255226335271 143.95411341533259 98.30864534724128 H 0.0 **** 0.06
34834 H 23.326133253491207 144.0077310881673 99.78083237666328 H 0.0 **** 0.06
34835 H 23.036422339815488 142.75037751428187 98.55501706880392 H 0.0 **** 0.06
34836 C 125.70155916923119 7.90198930688112 80.83714023475775 C 0.0 **** -0.24
34837 H 125.1688999932224 7.019351503134935 80.4847774525435 H 0.0 **** 0.06
34838 H 125.04098213549517 8.497148270267864 81.46811936680471 H 0.0 **** 0.06
34839 H 126.02164504681878 8.498020198079487 79.98220276369989 H 0.0 **** 0.06
34840 H 126.57449995313749 7.595139929527647 81.41322243534216 H 0.0 **** 0.06
34841 C 27.378477131560714 71.7582947833137 99.44969200767059 C 0.0 **** -0.24
34842 H 27.840746038399004 70.85710415445857 99.85130094022404 H 0.0 **** 0.06
34843 H 26.670602353579625 72.15837521114689 100.17740066132322 H 0.0 **** 0.06
34844 H 26.851537582104527 71.51590779824504 98.52674178085786 H 0.0 **** 0.06
34845 H 28.14894761608923 72.5018843271517 99.24548945357358 H 0.0 **** 0.06
34846 C 110.62510626845616 60.117693378261436 5.568804450066125 C 0.0 **** -0.24
34847 H 110.64998202756524 61.05885114227138 6.116932243279791 H 0.0 **** 0.06
34848 H 111.0101798051385 60.274450866556634 4.560354466607123 H 0.0 **** 0.06
34849 H 109.59737230375111 59.757029650171575 5.513401673504916 H 0.0 **** 0.06
34850 H 111.24204403521978 59.381214683199346 6.082609614083822 H 0.0 **** 0.06
34851 C 24.021695144206397 115.66166791584828 55.2238919446436 C 0.0 **** -0.24
34852 H 25.04053561832967 115.8679170496481 55.551003887483446 H 0.0 **** 0.06
34853 H 24.042362604731252 114.95279163127918 54.395219409021635 H 0.0 **** 0.06
34854 H 23.550076329081122 116.58800138543546 54.898140800554145 H 0.0 **** 0.06
34855 H 23.4532631638653 115.23651793575937 56.0519918660157 H 0.0 **** 0.06
34856 C 106.54059399839639 4.4711660545939935 132.3271366447009 C 0.0 **** -0.24
34857 H 107.52352053216265 4.341053702235456 132.77914111276522 H 0.0 **** 0.06
34858 H 106.17362896313927 3.5075044726016813 131.97305488625656 H 0.0 **** 0.06
34859 H 106.6163414094288 5.161547883073979 131.48750809971355 H 0.0 **** 0.06
34860 H 105.84992972234909 4.873422569808213 133.06722404699178 H 0.0 **** 0.06
34861 C 52.283472200283995 80.1716893735192 132.7882760079816 C 0.0 **** -0.24
34862 H 53.14990895055432 80.54249648808855 132.2419553562969 H 0.0 **** 0.06
34863 H 51.392017571918814 80.70989407951059 132.4632617730735 H 0.0 **** 0.06
34864 H 52.43300911405858 80.3279851498064 133.8560991045007 H 0.0 **** 0.06
34865 H 52.1579865334993 79.10706144009194 132.5910107894959 H 0.0 **** 0.06
34866 C 100.40437100933309 152.0396774653381 64.4951268158153 C 0.0 **** -0.24
34867 H 101.23709261001997 151.38369410603883 64.24172709321704 H 0.0 **** 0.06
34868 H 100.10843846861457 152.60940233687978 63.614137392430735 H 0.0 **** 0.06
34869 H 100.70963946408474 152.72566994045144 65.28582990623471 H 0.0 **** 0.06
34870 H 99.56203990513916 151.43988990615117 64.84019935586082 H 0.0 **** 0.06
34871 C 32.55421797809606 46.68269561949805 131.1746944073559 C 0.0 **** -0.24
34872 H 32.085865654996724 47.20691974622285 132.0071660250693 H 0.0 **** 0.06
34873 H 33.33159429309114 47.31159000070096 130.74123995058687 H 0.0 **** 0.06
34874 H 31.802771685274763 46.45877214892349 130.4170535780106 H 0.0 **** 0.06
34875 H 32.99580916219867 45.75241866645226 131.53294556586343 H 0.0 **** 0.06
34876 C 15.391752815848065 59.21065782205727 156.05038262051843 C 0.0 **** -0.24
34877 H 14.778875758858021 59.111490773817195 155.15406878739012 H 0.0 **** 0.06
34878 H 15.191591688420232 58.374033250751836 156.72099782671754 H 0.0 **** 0.06
34879 H 15.151535116032562 60.14594792995638 156.55371517228448 H 0.0 **** 0.06
34880 H 16.445548705725287 59.20788316348688 155.77102372462807 H 0.0 **** 0.06
34881 C 98.78781033315636 151.191836720805 36.56635181218215 C 0.0 **** -0.24
34882 H 98.33466372681937 150.8314305046644 37.489028528104356 H 0.0 **** 0.06
34883 H 99.54663932793517 151.93813484971815 36.800909920650454 H 0.0 **** 0.06
34884 H 98.01955135441028 151.64011651038686 35.935168580464264 H 0.0 **** 0.06
34885 H 99.24968837222445 150.35639713752397 36.038595914658046 H 0.0 **** 0.06
34886 C 66.46271848750087 149.52408208659332 33.653498628220675 C 0.0 **** -0.24
34887 H 66.79198346540684 148.71701445938047 34.307564572490136 H 0.0 **** 0.06
34888 H 66.62339494210931 149.23699249229674 32.613567118093144 H 0.0 **** 0.06
34889 H 67.03387366935164 150.42635991038654 33.87361078845997 H 0.0 **** 0.06
34890 H 65.40288576403674 149.71660631512304 33.8182586237766 H 0.0 **** 0.06
34891 C 141.9035380210866 157.95510288703667 125.81647450604407 C 0.0 **** -0.24
34892 H 141.4372991785134 158.93557280665038 125.72677560202703 H 0.0 **** 0.06
34893 H 142.34027113639672 157.85074029177764 126.80998268830774 H 0.0 **** 0.06
34894 H 142.68442068124318 157.85385472831132 125.06333646326266 H 0.0 **** 0.06
34895 H 141.15195340779042 157.18056208775278 125.66672822565926 H 0.0 **** 0.06
34896 C 2.3234546186128 11.762633891185878 78.55598538950392 C 0.0 **** -0.24
34897 H 2.9094802744001242 11.12198285015591 79.21411227449914 H 0.0 **** 0.06
34898 H 2.9927898979211704 12.3895237330293 77.96659903551893 H 0.0 **** 0.06
34899 H 1.6673098954746308 12.394686201628105 79.15461870246742 H 0.0 **** 0.06
34900 H 1.722104264688511 11.145002236749896 77.88871501373092 H 0.0 **** 0.06
34901 C 20.715213062108567 75.67864976328252 140.66051711549596 C 0.0 **** -0.24
34902 H 20.458942078955715 75.77950930957617 141.7152447566092 H 0.0 **** 0.06
34903 H 21.756804931618518 75.96279810962946 140.5105606160907 H 0.0 **** 0.06
34904 H 20.071858322916114 76.32864501376272 140.06730491418392 H 0.0 **** 0.06
34905 H 20.571382572101065 74.64393236186174 140.3505211077682 H 0.0 **** 0.06
34906 C 61.62793097660142 98.52791264041628 99.76726989842535 C 0.0 **** -0.24
34907 H 61.426925335183114 99.37310702536394 100.42581150659345 H 0.0 **** 0.06
34908 H 62.64378090622131 98.60428782678144 99.37891745233185 H 0.0 **** 0.06
34909 H 60.920248747000585 98.53618113374318 98.93849831406158 H 0.0 **** 0.06
34910 H 61.52120720354361 97.59867488247858 100.32770910782313 H 0.0 **** 0.06
34911 C 116.29486395365981 33.505270964136116 128.5576179135102 C 0.0 **** -0.24
34912 H 115.68787196074823 32.678362759748666 128.92692593283317 H 0.0 **** 0.06
34913 H 117.03352428717054 33.12732699206538 127.85196568302723 H 0.0 **** 0.06
34914 H 116.80362502280192 33.98380238176048 129.39470376697997 H 0.0 **** 0.06
34915 H 115.65240038510075 34.23176311618067 128.06001207170308 H 0.0 **** 0.06
34916 C 146.1783473450764 117.97604207956925 144.88977617420394 C 0.0 **** -0.24
34917 H 146.01939527518496 117.22150010806448 145.66016471805167 H 0.0 **** 0.06
34918 H 147.2375343962488 118.23167257422352 144.8451025749479 H 0.0 **** 0.06
34919 H 145.599056416675 118.86816452270992 145.12884820963833 H 0.0 **** 0.06
34920 H 145.8583683063152 117.58282402909643 143.92472703440637 H 0.0 **** 0.06
34921 C 29.88026977712684 22.06418096441383 6.433906498314627 C 0.0 **** -0.24
34922 H 30.86701862524302 21.601857010892353 6.433577916003173 H 0.0 **** 0.06
34923 H 29.53383610063065 22.181566971375545 7.461260927805199 H 0.0 **** 0.06
34924 H 29.182019551353022 21.432578201388573 5.884442726610928 H 0.0 **** 0.06
34925 H 29.937294545821544 23.04298363426792 5.956579150776008 H 0.0 **** 0.06
34926 C 99.49601517838926 48.64267021539047 107.74810715035488 C 0.0 **** -0.24
34927 H 98.9485673201454 47.80344544327227 108.17752709543063 H 0.0 **** 0.06
34928 H 99.66709828889054 49.395415146515475 108.51905498182114 H 0.0 **** 0.06
34929 H 98.9144403894631 49.07865734216165 106.9365458087515 H 0.0 **** 0.06
34930 H 100.45285536025676 48.29221805377803 107.36275021555383 H 0.0 **** 0.06
34931 C 29.64183327330943 97.90102707060817 71.45792539425945 C 0.0 **** -0.24
34932 H 29.405343746120366 97.22511213938225 70.63631626762759 H 0.0 **** 0.06
34933 H 29.391473205094115 98.92284178194774 71.17165383263388 H 0.0 **** 0.06
34934 H 30.70586606850611 97.83769296872123 71.68590096231662 H 0.0 **** 0.06
34935 H 29.06419862703359 97.61724976707421 72.33840341981637 H 0.0 **** 0.06
34936 C 45.847232295375946 89.9825892461966 103.13237191714305 C 0.0 **** -0.24
34937 H 45.719964311545226 90.08955586482006 102.05542120361216 H 0.0 **** 0.06
34938 H 44.888708225632584 89.73175928044554 103.5879340157349 H 0.0 **** 0.06
34939 H 46.21454243542087 90.9205463554776 103.55000406161543 H 0.0 **** 0.06
34940 H 46.56485377536771 89.18843958185983 103.33562187082498 H 0.0 **** 0.06
34941 C 60.18444743060104 45.81844103153014 24.81400201785766 C 0.0 **** -0.24
34942 H 59.91607451836995 46.7288869171646 24.278008427483655 H 0.0 **** 0.06
34943 H 60.90006704589257 45.24669608309523 24.222127729873705 H 0.0 **** 0.06
34944 H 59.28971271321984 45.218759682712545 24.981948227996895 H 0.0 **** 0.06
34945 H 60.631461424202485 46.08024370919162 25.771899004913394 H 0.0 **** 0.06
34946 C 91.22259411890505 32.392157280465256 67.18183103600083 C 0.0 **** -0.24
34947 H 90.92332330658847 31.58349669072726 67.84816869009197 H 0.0 **** 0.06
34948 H 90.5586717089477 33.24556307120321 67.32438799120192 H 0.0 **** 0.06
34949 H 91.16226486647552 32.05279541076493 66.14860516230257 H 0.0 **** 0.06
34950 H 92.2470691360687 32.68817036847588 67.4079351109021 H 0.0 **** 0.06
34951 C 97.03422050655092 104.00908800522433 126.74553617365842 C 0.0 **** -0.24
34952 H 97.27091840858924 104.40362064606029 125.75779383342342 H 0.0 **** 0.06
34953 H 97.20628053727938 104.78065477877504 127.49568875947375 H 0.0 **** 0.06
34954 H 97.67156636393531 103.14949037667225 126.95533384303712 H 0.0 **** 0.06
34955 H 95.98880111598818 103.70192278648375 126.77302579520938 H 0.0 **** 0.06
34956 C 145.44974115236732 14.556860150191625 149.186469715604 C 0.0 **** -0.24
34957 H 145.46185258814478 14.018387273509262 148.2394105318811 H 0.0 **** 0.06
34958 H 146.21025574083762 15.33838958600208 149.16908584491097 H 0.0 **** 0.06
34959 H 145.65960208129752 13.864015995101425 150.00091136586235 H 0.0 **** 0.06
34960 H 144.4687192489664 15.007539660026652 149.33671238586817 H 0.0 **** 0.06
34961 C 146.38143750475862 55.77735885194022 16.48576237188651 C 0.0 **** -0.24
34962 H 146.3639581698879 56.662001962448926 17.122681448185553 H 0.0 **** 0.06
34963 H 145.3995935722254 55.63875222962696 16.030841922718253 H 0.0 **** 0.06
34964 H 146.6312416486871 54.90247519941511 17.08676850179389 H 0.0 **** 0.06
34965 H 147.12886084259586 55.90703778610634 15.70371470553237 H 0.0 **** 0.06
34966 C 12.786268126868038 113.84025389326385 120.50063901176094 C 0.0 **** -0.24
34967 H 13.082026754383179 114.64394979002165 119.82555262686597 H 0.0 **** 0.06
34968 H 12.84814747698752 114.19066760489218 121.53153428807036 H 0.0 **** 0.06
34969 H 13.453659352650675 112.9886844637758 120.36597152136804 H 0.0 **** 0.06
34970 H 11.762455614352007 113.53841308341154 120.2793226634636 H 0.0 **** 0.06
34971 C 105.85513356385798 26.85928081650934 110.37722465643284 C 0.0 **** -0.24
34972 H 105.3960879554694 26.041422898789676 110.93335273126115 H 0.0 **** 0.06
34973 H 106.35911738458486 26.461233755659748 109.496072725793 H 0.0 **** 0.06
34974 H 106.58071091787636 27.367417101834008 111.01176452968454 H 0.0 **** 0.06
34975 H 105.08484976360566 27.565783610077062 110.06829502013261 H 0.0 **** 0.06
34976 C 54.671597065175604 98.0320582549337 54.20927898065058 C 0.0 **** -0.24
34977 H 53.70985539907605 98.35450172914815 53.81170635119729 H 0.0 **** 0.06
34978 H 55.12965304830192 98.85264065271903 54.76196253984128 H 0.0 **** 0.06
34979 H 55.324781590976954 97.73854552261645 53.38682524872273 H 0.0 **** 0.06
34980 H 54.523093660398786 97.18232408983954 54.875641828141525 H 0.0 **** 0.06
34981 C 150.3538421958538 81.0487615712939 12.587075258625674 C 0.0 **** -0.24
34982 H 151.24892520818136 81.53265845973444 12.97750713256437 H 0.0 **** 0.06
34983 H 149.69483477712876 81.80050616145786 12.153200696428314 H 0.0 **** 0.06
34984 H 149.8364398327011 80.53476306371793 13.396969187755758 H 0.0 **** 0.06
34985 H 150.63648993468786 80.32687613456731 11.821067087609833 H 0.0 **** 0.06
34986 C 149.4634605448878 102.29986237450697 134.28742420893707 C 0.0 **** -0.24
34987 H 148.4069453936707 102.0804510991756 134.44371657682024 H 0.0 **** 0.06
34988 H 149.74258742693385 102.03467099203976 133.26817961612267 H 0.0 **** 0.06
34989 H 150.06209548393613 101.72194604277223 134.99139705922434 H 0.0 **** 0.06
34990 H 149.64024188186622 103.36383145080833 134.44864162365764 H 0.0 **** 0.06
34991 C 51.043279904815506 69.19677880417967 79.4087864085955 C 0.0 **** -0.24
34992 H 50.49122627533957 68.71651527524372 78.60071302218945 H 0.0 **** 0.06
34993 H 50.712185648858025 68.79099352380914 80.36530916816571 H 0.0 **** 0.06
34994 H 50.86121190155578 70.27064126997797 79.38581980104796 H 0.0 **** 0.06
34995 H 52.10974554455453 69.00642217957353 79.28189945734539 H 0.0 **** 0.06
34996 C 81.89116475229355 20.87526582260319 145.3236947054865 C 0.0 **** -0.24
34997 H 80.86145994545438 21.208817669979545 145.45109965866388 H 0.0 **** 0.06
34998 H 82.31124922200186 21.32916971349627 144.42558659278552 H 0.0 **** 0.06
34999 H 81.9132778300833 19.79011376791022 145.2283015350199 H 0.0 **** 0.06
35000 H 82.47982382900612 21.17556090861502 146.19075019395729 H 0.0 **** 0.06
35001 C 0.7171864963918608 148.38652720134698 105.56016356890734 C 0.0 **** -0.24
35002 H 1.5553067285920292 148.39662161842372 106.25555725251525 H 0.0 **** 0.06
35003 H -0.17281595473488665 148.77040079389587 106.05866989174223 H 0.0 **** 0.06
35004 H 0.5347648512352308 147.3643755330657 105.22656170390496 H 0.0 **** 0.06
35005 H 0.9507204697372416 149.01354127907973 104.69884589852796 H 0.0 **** 0.06
35006 C 76.11257799476903 25.224476748413352 141.5938677461063 C 0.0 **** -0.24
35007 H 75.32215028462144 25.561498965002528 142.26386617221078 H 0.0 **** 0.06
35008 H 76.29077637793529 25.982968531117578 140.8317546304629 H 0.0 **** 0.06
35009 H 75.81124163301871 24.292341588956084 141.1165363307613 H 0.0 **** 0.06
35010 H 77.02699249443003 25.06129641385337 142.16511391665045 H 0.0 **** 0.06
35011 C 46.42095488325401 44.70677038019491 53.539069993905684 C 0.0 **** -0.24
35012 H 45.60328630277121 44.032710638291405 53.283651875915325 H 0.0 **** 0.06
35013 H 46.474755518435586 45.506868945851124 52.80012705796622 H 0.0 **** 0.06
35014 H 47.359225050266616 44.15304146496439 53.54533137972737 H 0.0 **** 0.06
35015 H 46.24399901352581 45.13398918123056 54.52604849808 H 0.0 **** 0.06
35016 C 140.07750243189298 34.43565107366874 149.85727634605246 C 0.0 **** -0.24
35017 H 139.2879310510815 33.796968540387695 149.46085923776593 H 0.0 **** 0.06
35018 H 140.19228708110435 35.31044185654551 149.21640002550583 H 0.0 **** 0.06
35019 H 141.0141260556386 33.878990412623125 149.8845333639317 H 0.0 **** 0.06
35020 H 139.81483707145492 34.75431480354359 150.8651340432077 H 0.0 **** 0.06
35021 C 8.041660389207777 143.81887504834032 0.8549706560330037 C 0.0 **** -0.24
35022 H 8.636173290071895 143.1657046219192 0.2158973641306261 H 0.0 **** 0.06
35023 H 7.709100613946703 143.26350199534247 1.7323506454224002 H 0.0 **** 0.06
35024 H 7.175132445603339 144.17776743968744 0.3007681736840482 H 0.0 **** 0.06
35025 H 8.648339716328678 144.66793369490995 1.1697617981868689 H 0.0 **** 0.06
35026 C 94.09172075393282 72.02800254954165 52.722282925234595 C 0.0 **** -0.24
35027 H 94.39106523558712 72.85045656033299 53.37291813441212 H 0.0 **** 0.06
35028 H 93.44858740566342 72.40811833884447 51.92897004912089 H 0.0 **** 0.06
35029 H 93.54908549487153 71.28293182834976 53.30538282818594 H 0.0 **** 0.06
35030 H 94.97933557923912 71.57088378479388 52.2843979785161 H 0.0 **** 0.06
35031 C 71.80838394531287 86.67083581865433 161.4299938699612 C 0.0 **** -0.24
35032 H 70.92331059209243 86.45552048082433 162.02817302662706 H 0.0 **** 0.06
35033 H 72.62652785017835 86.02382058532169 161.74521232119685 H 0.0 **** 0.06
35034 H 72.09425543577163 87.7136218104053 161.56703662362975 H 0.0 **** 0.06
35035 H 71.5870143314024 86.48965965295326 160.37679890422265 H 0.0 **** 0.06
35036 C 18.10685097091681 138.28053132807818 42.65935864955587 C 0.0 **** -0.24
35037 H 17.801498604761974 139.2174218270751 43.125236293987754 H 0.0 **** 0.06
35038 H 17.35843871503789 137.9772567945686 41.927727945796704 H 0.0 **** 0.06
35039 H 18.20329655991023 137.5091748627244 43.42385870008982 H 0.0 **** 0.06
35040 H 19.066633215701273 138.4193825666761 42.16144777366115 H 0.0 **** 0.06
35041 C 105.66899990981221 64.41564567940333 84.78617689393252 C 0.0 **** -0.24
35042 H 104.74696629867734 64.65490370455575 84.25733056269848 H 0.0 **** 0.06
35043 H 106.45548413075434 65.10317397881397 84.47471539002686 H 0.0 **** 0.06
35044 H 105.96675094540112 63.39354512692955 84.55198543374996 H 0.0 **** 0.06
35045 H 105.50675480479049 64.51010327148015 85.86016207206092 H 0.0 **** 0.06
35046 C 87.73612569079418 2.4964684942141346 128.43293151718942 C 0.0 **** -0.24
35047 H 88.6097717933604 1.9573199888784956 128.06543966784682 H 0.0 **** 0.06
35048 H 86.84867550949504 2.1557015161325594 127.89979467460819 H 0.0 **** 0.06
35049 H 87.87408510326117 3.5652949468631405 128.26639292587222 H 0.0 **** 0.06
35050 H 87.61491119228467 2.307923948576537 129.4996324383889 H 0.0 **** 0.06
35051 C 31.49496075505307 96.08585010055327 48.37991020607626 C 0.0 **** -0.24
35052 H 32.00031440013397 95.3128699892048 48.95975874408623 H 0.0 **** 0.06
35053 H 32.139354672091486 96.96145970129342 48.30274702654066 H 0.0 **** 0.06
35054 H 30.56441113230447 96.36167707505459 48.87605608937028 H 0.0 **** 0.06
35055 H 31.27611805147157 95.7063349786234 47.381946784021125 H 0.0 **** 0.06
35056 C 108.29212542023208 16.8674699271684 104.76696658021322 C 0.0 **** -0.24
35057 H 108.3246814136229 16.72035167476224 103.68769221011536 H 0.0 **** 0.06
35058 H 108.11342352485082 15.9113930403432 105.25909306609165 H 0.0 **** 0.06
35059 H 107.48893404340049 17.561131781150237 105.01538899716368 H 0.0 **** 0.06
35060 H 109.24410545551143 17.278411782138107 105.10551304672737 H 0.0 **** 0.06
35061 C 138.07777501278633 153.0774589051229 43.39237762607934 C 0.0 **** -0.24
35062 H 138.10680196279924 152.5952781033705 42.41467981967088 H 0.0 **** 0.06
35063 H 138.29459363615746 152.34211580166624 44.16702790345323 H 0.0 **** 0.06
35064 H 137.08690150121714 153.49986023229525 43.55877370149085 H 0.0 **** 0.06
35065 H 138.82222262736752 153.87259928326154 43.42739721015744 H 0.0 **** 0.06
35066 C 47.84167306524306 56.30486112558749 27.91049971785001 C 0.0 **** -0.24
35067 H 48.04140922292598 57.063732631140326 28.667309716826942 H 0.0 **** 0.06
35068 H 48.642698851925076 55.5652493567228 27.91804922959357 H 0.0 **** 0.06
35069 H 47.79253127364926 56.77625180411232 26.928847145212195 H 0.0 **** 0.06
35070 H 46.89239824234461 55.816522162439554 28.126324103669866 H 0.0 **** 0.06
35071 C 139.1363349558385 6.307998847920686 79.40766292434897 C 0.0 **** -0.24
35072 H 138.5206813502586 7.104748472696343 78.98927727340539 H 0.0 **** 0.06
35073 H 138.89175595587182 5.3655749465309555 78.91756481064478 H 0.0 **** 0.06
35074 H 138.9411481858416 6.22315106026673 80.47674095581283 H 0.0 **** 0.06
35075 H 140.1889185047405 6.539497574301379 79.24700165009381 H 0.0 **** 0.06
35076 C 103.29220353603824 64.88582956662742 149.80879926400968 C 0.0 **** -0.24
35077 H 104.33491503300016 64.58022287712814 149.7217007842986 H 0.0 **** 0.06
35078 H 102.90351238036752 65.13428572711648 148.82046196147053 H 0.0 **** 0.06
35079 H 103.22260102300899 65.758736940789 150.45760821280876 H 0.0 **** 0.06
35080 H 102.70886219706591 64.06851872942438 150.23386838741288 H 0.0 **** 0.06
35081 C 117.05693173596791 154.48903524258918 63.56720342326477 C 0.0 **** -0.24
35082 H 117.58140283065424 153.9570149834962 62.77380229172351 H 0.0 **** 0.06
35083 H 116.3065744304183 153.83341696609074 64.00969010379751 H 0.0 **** 0.06
35084 H 116.56900301028512 155.37135030701427 63.15201362709848 H 0.0 **** 0.06
35085 H 117.76977208209775 154.7942173773049 64.33313380926359 H 0.0 **** 0.06
35086 C 115.75447305731615 94.36510050967257 20.84708905684458 C 0.0 **** -0.24
35087 H 115.91961913061564 93.83333129431105 21.784827917786252 H 0.0 **** 0.06
35088 H 114.69014255168369 94.36356709036619 20.611636124248733 H 0.0 **** 0.06
35089 H 116.3048002761546 93.86957066065264 20.04739538340398 H 0.0 **** 0.06
35090 H 116.10310582224318 95.39292048813695 20.94647786400636 H 0.0 **** 0.06
35091 C 59.675034049902905 108.14995728420496 95.34943216240687 C 0.0 **** -0.24
35092 H 60.26678871000675 107.31837996689501 94.96861146740733 H 0.0 **** 0.06
35093 H 60.08713115506822 108.48345801544536 96.3018454630074 H 0.0 **** 0.06
35094 H 58.644269318219955 107.82483565335247 95.49297960965548 H 0.0 **** 0.06
35095 H 59.70072013408105 108.97245391613308 94.634343088341 H 0.0 **** 0.06
35096 C 71.49556694886417 138.20634549222893 10.760104502554526 C 0.0 **** -0.24
35097 H 71.52265394121554 139.19901031875256 10.308792255687848 H 0.0 **** 0.06
35098 H 70.79456984632668 137.57769164633447 10.210497117827344 H 0.0 **** 0.06
35099 H 71.1728597205614 138.28907087565364 11.798058460385903 H 0.0 **** 0.06
35100 H 72.49053707836254 137.76334760792116 10.722512516214124 H 0.0 **** 0.06
35101 C 13.363561275348353 4.786604574257922 122.80549877964847 C 0.0 **** -0.24
35102 H 12.535960075846809 5.490845038350471 122.88316114661166 H 0.0 **** 0.06
35103 H 13.218611824325052 4.1498270564806035 121.93272337362839 H 0.0 **** 0.06
35104 H 13.401729606394213 4.16958158316794 123.70388438625105 H 0.0 **** 0.06
35105 H 14.299165020863242 5.336922596879447 122.70319248254273 H 0.0 **** 0.06
35106 C 6.334083508834496 107.14628010620874 119.6872984360291 C 0.0 **** -0.24
35107 H 7.212480058031247 106.53095855246022 119.4906445089166 H 0.0 **** 0.06
35108 H 6.4836769246296555 107.70654330716036 120.61007294909888 H 0.0 **** 0.06
35109 H 5.457739002256027 106.50542540394841 119.78974571276632 H 0.0 **** 0.06
35110 H 6.183079952850889 107.83918909378735 118.86061841130305 H 0.0 **** 0.06
35111 C 137.40857139275064 65.1853534313999 49.50609396599238 C 0.0 **** -0.24
35112 H 137.07807597292512 66.17166534058424 49.83107925435611 H 0.0 **** 0.06
35113 H 136.978876036557 64.96109964127467 48.530058629330355 H 0.0 **** 0.06
35114 H 137.08049519155406 64.43691182798338 50.22853363624361 H 0.0 **** 0.06
35115 H 138.49567191789572 65.17098476930639 49.43736403140886 H 0.0 **** 0.06
35116 C 2.4050316491124377 102.298251943049 34.523586038742025 C 0.0 **** -0.24
35117 H 2.820819521565312 101.51096743997596 33.89505648375183 H 0.0 **** 0.06
35118 H 1.5001430968383787 101.93294953656775 35.0108362448629 H 0.0 **** 0.06
35119 H 2.1625353213561525 103.1643646003719 33.908485048908375 H 0.0 **** 0.06
35120 H 3.135921796216671 102.58260759917857 35.28007614870593 H 0.0 **** 0.06
35121 C 14.044141322712235 119.2637315523109 84.80877455258764 C 0.0 **** -0.24
35122 H 13.943584959129637 119.87573876214674 85.70527745676615 H 0.0 **** 0.06
35123 H 13.10057646238468 118.7546459883904 84.60930241375316 H 0.0 **** 0.06
35124 H 14.8306892955735 118.52484179159399 84.95974820220455 H 0.0 **** 0.06
35125 H 14.300647968909935 119.89972165953407 83.96169853990206 H 0.0 **** 0.06
35126 C 50.302385708390375 50.03851069095492 147.44944524185902 C 0.0 **** -0.24
35127 H 49.85893956622151 49.375733966835355 146.70692429043999 H 0.0 **** 0.06
35128 H 49.65175354477668 50.89878648269996 147.60393854412823 H 0.0 **** 0.06
35129 H 51.27665229766957 50.37787363656997 147.09707714901862 H 0.0 **** 0.06
35130 H 50.42350097673919 49.49992904529461 148.3892546666769 H 0.0 **** 0.06
35131 C 43.62801499829226 150.02943844003806 90.25936294193869 C 0.0 **** -0.24
35132 H 44.026936335625905 150.1072117777934 91.26975636506121 H 0.0 **** 0.06
35133 H 44.41815603847289 149.7082110714373 89.57964240136369 H 0.0 **** 0.06
35134 H 43.2476852125193 151.00012136796772 89.94288271948209 H 0.0 **** 0.06
35135 H 42.817609518886485 149.2993781354379 90.24474026984409 H 0.0 **** 0.06
35136 C 55.82228696985737 161.5876612614531 141.85121649023665 C 0.0 **** -0.24
35137 H 56.39419475377446 161.07628538003007 142.62604619793603 H 0.0 **** 0.06
35138 H 55.59302193538929 160.88748973399106 141.0472716768167 H 0.0 **** 0.06
35139 H 56.407122076507676 162.4171287701171 141.4555191798819 H 0.0 **** 0.06
35140 H 54.893476590556304 161.9681767029039 142.2786322085713 H 0.0 **** 0.06
35141 C 134.45537707579254 81.11901389013204 149.56321595030025 C 0.0 **** -0.24
35142 H 135.5156380967559 80.86920408788183 149.57719612700618 H 0.0 **** 0.06
35143 H 134.24146900551156 81.83792379596386 150.35435042188647 H 0.0 **** 0.06
35144 H 133.86602454857254 80.21564486016905 149.72337799104125 H 0.0 **** 0.06
35145 H 134.19733757782552 81.55466125211518 148.59808184459786 H 0.0 **** 0.06
35146 C 143.6906724612478 157.38487378943472 36.56644423842019 C 0.0 **** -0.24
35147 H 142.767061686246 157.2440423668454 37.127140660319185 H 0.0 **** 0.06
35148 H 143.92453300303646 158.44897271653377 36.5139216132322 H 0.0 **** 0.06
35149 H 143.5680680768661 156.98956389133502 35.5580558674485 H 0.0 **** 0.06
35150 H 144.50336383164387 156.85848010779074 37.06732276103543 H 0.0 **** 0.06
35151 C 43.01859415113837 107.04553304625463 65.55463507884548 C 0.0 **** -0.24
35152 H 42.92168161371556 107.04229120208868 64.46909866900965 H 0.0 **** 0.06
35153 H 42.594702412103885 107.96775394107391 65.95381713441819 H 0.0 **** 0.06
35154 H 44.07267420119598 106.98321529441463 65.82515976031408 H 0.0 **** 0.06
35155 H 42.485000872358654 106.19099510969966 65.96928547039252 H 0.0 **** 0.06
35156 C 9.090913385538805 102.61580294133398 142.3611768006994 C 0.0 **** -0.24
35157 H 8.191962394353823 102.02403248213125 142.53056293239703 H 0.0 **** 0.06
35158 H 9.628570689387779 102.73417549557999 143.302576532326 H 0.0 **** 0.06
35159 H 8.813638546557698 103.59671567207636 141.97521082759755 H 0.0 **** 0.06
35160 H 9.729951200401175 102.10793923571916 141.63929941328044 H 0.0 **** 0.06
35161 C 120.68762542248268 144.3498956195378 138.65153312879022 C 0.0 **** -0.24
35162 H 121.7330079737645 144.63651540600176 138.53967939921392 H 0.0 **** 0.06
35163 H 120.07476011157499 144.93580263368807 137.9652868250816 H 0.0 **** 0.06
35164 H 120.36744140873577 144.53782999119176 139.67689782421786 H 0.0 **** 0.06
35165 H 120.57529219585535 143.28943444726957 138.42426846664745 H 0.0 **** 0.06
35166 C 68.5764393971893 51.6411637532198 10.37570107350055 C 0.0 **** -0.24
35167 H 67.71003456958618 50.99997511955223 10.213476949187054 H 0.0 **** 0.06
35168 H 68.6484142001421 51.89328672498098 11.433553842842457 H 0.0 **** 0.06
35169 H 68.46775319977876 52.55406346530117 9.790845316488372 H 0.0 **** 0.06
35170 H 69.47958801761784 51.116342831494464 10.065086504999613 H 0.0 **** 0.06
35171 C 8.536603775640913 112.77485396142453 34.552975157462754 C 0.0 **** -0.24
35172 H 8.969920893605433 112.84669133456427 35.550494339726214 H 0.0 **** 0.06
35173 H 7.6476322932060725 113.40442208236743 34.498088120787486 H 0.0 **** 0.06
35174 H 8.261655706217425 111.74065741896896 34.3503181317659 H 0.0 **** 0.06
35175 H 9.265094967136093 113.10910419716771 33.81484766565984 H 0.0 **** 0.06
35176 C 76.77832182126241 122.76959169345054 114.18526689623917 C 0.0 **** -0.24
35177 H 77.86547845327337 122.82117607306915 114.24633547349234 H 0.0 **** 0.06
35178 H 76.4053241683884 123.61439464183144 113.60520170916084 H 0.0 **** 0.06
35179 H 76.35606044918057 122.80299284411711 115.18986411343414 H 0.0 **** 0.06
35180 H 76.48614671094407 121.83770434363382 113.70038592956607 H 0.0 **** 0.06
35181 C 37.87975170753593 57.34600137628311 83.37055548344203 C 0.0 **** -0.24
35182 H 36.91568706091371 57.578902051000824 83.823370574783 H 0.0 **** 0.06
35183 H 38.66875721824806 57.87436276897705 83.90584830298856 H 0.0 **** 0.06
35184 H 37.87525104427026 57.65901491544109 82.32667037869219 H 0.0 **** 0.06
35185 H 38.056946631777706 56.27153432738859 83.42694169082185 H 0.0 **** 0.06
35186 C 32.500462989846795 85.80596392564433 143.7726186087104 C 0.0 **** -0.24
35187 H 31.725031724080452 85.06172531618245 143.95977940561096 H 0.0 **** 0.06
35188 H 33.47426899251397 85.38889520536917 144.02956882304207 H 0.0 **** 0.06
35189 H 32.30998881309614 86.68971490492613 144.38166183736547 H 0.0 **** 0.06
35190 H 32.489263158677176 86.0828375947761 142.71818017674514 H 0.0 **** 0.06
35191 C 125.96680249433075 82.67253103560267 85.0286604434238 C 0.0 **** -0.24
35192 H 125.53405721407603 82.21502394332937 84.13946720626967 H 0.0 **** 0.06
35193 H 125.55693248415002 83.67448826677368 85.15812918412718 H 0.0 **** 0.06
35194 H 127.04925026322957 82.73382568201995 84.914951788456 H 0.0 **** 0.06
35195 H 125.72697001586744 82.06678625028758 85.90209359484237 H 0.0 **** 0.06
35196 C 35.18235977775153 123.8101507903562 86.96474716660198 C 0.0 **** -0.24
35197 H 34.99580529624038 124.60199630003308 86.24017906664912 H 0.0 **** 0.06
35198 H 35.57199905330265 122.93116259198825 86.44980747766229 H 0.0 **** 0.06
35199 H 34.25022662842608 123.55225550928867 87.46885897399457 H 0.0 **** 0.06
35200 H 35.90935711326833 124.15384997013143 87.70010937874389 H 0.0 **** 0.06
35201 C 44.02402504444278 98.18043792071364 150.5676374149317 C 0.0 **** -0.24
35202 H 45.018864142951756 98.49413319237374 150.25235613938878 H 0.0 **** 0.06
35203 H 43.29203995298053 98.9231958262144 150.25221176302568 H 0.0 **** 0.06
35204 H 44.00084286953333 98.08469715167314 151.65362000078716 H 0.0 **** 0.06
35205 H 43.78558396627655 97.21908286070612 150.11263064976566 H 0.0 **** 0.06
35206 C 11.745016312463207 40.65158949563572 0.5478628179546945 C 0.0 **** -0.24
35207 H 12.02461254172431 40.22778236210644 -0.4164956777051998 H 0.0 **** 0.06
35208 H 10.863989558339256 40.13489818457589 0.9294487507853262 H 0.0 **** 0.06
35209 H 11.521316112948995 41.71173653930812 0.4266343602127449 H 0.0 **** 0.06
35210 H 12.570034192090759 40.53253906649596 1.2494911523138228 H 0.0 **** 0.06
35211 C 74.70779764550184 63.588844627442654 134.96677608220782 C 0.0 **** -0.24
35212 H 75.61317529263965 63.95742605170568 134.48491313995495 H 0.0 **** 0.06
35213 H 74.02948760008633 63.19380373795218 134.21085874687807 H 0.0 **** 0.06
35214 H 74.22169176119837 64.40616221174434 135.4999767075511 H 0.0 **** 0.06
35215 H 74.96810551083922 62.79846660396811 135.67175288454462 H 0.0 **** 0.06
35216 C 36.82698410602052 100.25979380114231 48.7875835009642 C 0.0 **** -0.24
35217 H 37.20807222949196 99.69338793528922 49.637845883981214 H 0.0 **** 0.06
35218 H 35.766526723963125 100.04656443373412 48.65421099535507 H 0.0 **** 0.06
35219 H 37.371500672082675 99.9739299171265 47.88828968351146 H 0.0 **** 0.06
35220 H 36.96354480603503 101.325853584893 48.972171154579485 H 0.0 **** 0.06
35221 C 15.239328169995673 83.87899370993304 100.31200393598098 C 0.0 **** -0.24
35222 H 15.285308120896048 83.27866030264617 101.2202370993167 H 0.0 **** 0.06
35223 H 15.592265840604142 84.88837237958751 100.52628784767526 H 0.0 **** 0.06
35224 H 14.210847708126636 83.92105035085281 99.95495631748685 H 0.0 **** 0.06
35225 H 15.871019803161317 83.42727618414615 99.54683347949563 H 0.0 **** 0.06
35226 C 122.52278162651908 109.85665914517745 149.37234679740317 C 0.0 **** -0.24
35227 H 122.20960874543565 108.83746921543013 149.6011535325037 H 0.0 **** 0.06
35228 H 122.70385614749554 110.39759137749675 150.3012677840664 H 0.0 **** 0.06
35229 H 121.73943848246788 110.35828531516884 148.80549098307108 H 0.0 **** 0.06
35230 H 123.43851227925839 109.83032327266685 148.7818083600165 H 0.0 **** 0.06
35231 C 122.91921157822799 7.612952519376471 57.4279704385649 C 0.0 **** -0.24
35232 H 123.57425781137462 7.707469515611059 58.29409215535543 H 0.0 **** 0.06
35233 H 123.30330214254957 6.836940938217317 56.765071990872116 H 0.0 **** 0.06
35234 H 122.88383958581505 8.563272733059314 56.89444143559456 H 0.0 **** 0.06
35235 H 121.91604844249557 7.344207156063256 57.759070893560875 H 0.0 **** 0.06
35236 C 112.17849198702322 162.2665855528719 133.30950405753202 C 0.0 **** -0.24
35237 H 112.65591119319606 163.24128485975052 133.2003753618768 H 0.0 **** 0.06
35238 H 111.85484800486245 162.1343165083518 134.34268379834623 H 0.0 **** 0.06
35239 H 112.88797733079684 161.48330467414058 133.04725914430247 H 0.0 **** 0.06
35240 H 111.31342089964824 162.2107091956299 132.64779661510917 H 0.0 **** 0.06
35241 C 127.2341487110956 12.81323851882405 63.65511915371587 C 0.0 **** -0.24
35242 H 126.72313642255563 13.044442910786891 64.59010837658477 H 0.0 **** 0.06
35243 H 127.01020213995218 13.584149804149433 62.91785558030864 H 0.0 **** 0.06
35244 H 126.89370648045275 11.845781128755256 63.28572485396987 H 0.0 **** 0.06
35245 H 128.31021628700603 12.777506337668363 63.82950861645264 H 0.0 **** 0.06
35246 C 103.63617472685198 6.807402737873133 92.5002664383572 C 0.0 **** -0.24
35247 H 103.92283700695751 7.766444133613561 92.9314394739151 H 0.0 **** 0.06
35248 H 104.39395736026779 6.490255871844511 91.78391443131994 H 0.0 **** 0.06
35249 H 102.67651360599771 6.909511982016056 91.99420214163567 H 0.0 **** 0.06
35250 H 103.5505129251641 6.06403561590821 93.29346519254156 H 0.0 **** 0.06
35251 C 54.99856040497042 68.40065237030126 5.69291946235024 C 0.0 **** -0.24
35252 H 54.97968805907064 69.42898372121499 5.331158020205756 H 0.0 **** 0.06
35253 H 54.081574673479906 68.19210926354043 6.243846671591477 H 0.0 **** 0.06
35254 H 55.85745731246453 68.26337075684103 6.351128219291688 H 0.0 **** 0.06
35255 H 55.0777131560892 67.71837512269184 4.845925077820695 H 0.0 **** 0.06
35256 C 92.41612418408579 132.62559418402162 75.55813404905473 C 0.0 **** -0.24
35257 H 92.41967788469704 132.60608751904505 74.46835805638273 H 0.0 **** 0.06
35258 H 91.43677594726896 132.94876158805712 75.91184683245933 H 0.0 **** 0.06
35259 H 93.17793409588596 133.32110813220885 75.91167738697175 H 0.0 **** 0.06
35260 H 92.63023979370111 131.62781333412158 75.94085422189787 H 0.0 **** 0.06
35261 C 23.986036065761994 16.370797905107935 16.171472160889834 C 0.0 **** -0.24
35262 H 24.259565663120696 15.574866745147375 16.86366793124293 H 0.0 **** 0.06
35263 H 24.60701813242389 16.303669884913916 15.277022598338505 H 0.0 **** 0.06
35264 H 24.142319035282526 17.33822516301703 16.650107753099007 H 0.0 **** 0.06
35265 H 22.936621199718076 16.26813526199936 15.89465690358952 H 0.0 **** 0.06
35266 C 61.407820988473304 141.2847388319169 26.029403981932575 C 0.0 **** -0.24
35267 H 60.961977669752 140.9641720620763 25.08743659425022 H 0.0 **** 0.06
35268 H 62.328855798174004 140.7267537778239 26.203497263627327 H 0.0 **** 0.06
35269 H 60.708954466200794 141.09566447518222 26.844414004395418 H 0.0 **** 0.06
35270 H 61.63146407822012 142.35017650842303 25.981810266188006 H 0.0 **** 0.06
35271 C 6.402550323790251 32.15856198004386 36.51791884161011 C 0.0 **** -0.24
35272 H 6.178642605495405 31.85207258694004 35.49604240703657 H 0.0 **** 0.06
35273 H 7.342662652479959 32.71068387504502 36.53429269365205 H 0.0 **** 0.06
35274 H 6.489859836104458 31.274978523239156 37.15112908782673 H 0.0 **** 0.06
35275 H 5.600510276042883 32.79473412990586 36.891025509981716 H 0.0 **** 0.06
35276 C 54.56834312519898 6.099567487878346 126.07204968317808 C 0.0 **** -0.24
35277 H 54.46857511683042 5.7668477183694336 127.10530510200886 H 0.0 **** 0.06
35278 H 54.73180610086432 7.177446809684341 126.0517296213697 H 0.0 **** 0.06
35279 H 53.657250247096215 5.8591017107494565 125.52293414539076 H 0.0 **** 0.06
35280 H 55.41509471173744 5.5946204488762135 125.60751003580293 H 0.0 **** 0.06
35281 C 133.02516076352103 71.11439577895175 42.05900823950651 C 0.0 **** -0.24
35282 H 132.8876256447986 72.17437462422912 42.27081421527686 H 0.0 **** 0.06
35283 H 132.11432720326212 70.57126441795862 42.313567555944246 H 0.0 **** 0.06
35284 H 133.85491406001356 70.7307605726179 42.65286542628678 H 0.0 **** 0.06
35285 H 133.24395715382312 70.9808910454587 40.999724768562544 H 0.0 **** 0.06
35286 C 85.994353153513 29.67011276519878 67.56192700463872 C 0.0 **** -0.24
35287 H 85.63579805361383 29.895633240161743 66.55713864914176 H 0.0 **** 0.06
35288 H 86.47620307247281 28.69207532541259 67.56497615349096 H 0.0 **** 0.06
35289 H 85.15291489975988 29.664202346559705 68.25534867408795 H 0.0 **** 0.06
35290 H 86.7131936484941 30.43010776560851 67.87000626762119 H 0.0 **** 0.06
35291 C 120.59945903876061 101.63931726771645 20.425504593829203 C 0.0 **** -0.24
35292 H 120.4146580096814 101.00523516942778 19.55839772169861 H 0.0 **** 0.06
35293 H 121.57962711520594 102.10708237561144 20.330545575289648 H 0.0 **** 0.06
35294 H 120.57110985817721 101.03367550680957 21.33078919463253 H 0.0 **** 0.06
35295 H 119.83142057138198 102.41125760027381 20.481307060150243 H 0.0 **** 0.06
35296 C 97.3366267803217 82.79888765968485 152.60375406600474 C 0.0 **** -0.24
35297 H 97.32095694671796 83.8857733266531 152.69146891138774 H 0.0 **** 0.06
35298 H 97.64914022759388 82.36276874633982 153.55306303744968 H 0.0 **** 0.06
35299 H 98.03783710967929 82.5085184602916 151.82131003492216 H 0.0 **** 0.06
35300 H 96.33903828331341 82.440676490585 152.34911743865183 H 0.0 **** 0.06
35301 C 18.758853369167895 61.46550216179452 0.9185837605424751 C 0.0 **** -0.24
35302 H 18.405456068721605 62.461104179098925 0.6492571120035677 H 0.0 **** 0.06
35303 H 19.754814991827914 61.540485179462024 1.356642991779097 H 0.0 **** 0.06
35304 H 18.800405453549416 60.84173750937174 0.025806111126939868 H 0.0 **** 0.06
35305 H 18.075285425422862 61.01998225422358 1.6408944385398172 H 0.0 **** 0.06
35306 C 124.61748750700002 126.43860707436772 17.536689741777764 C 0.0 **** -0.24
35307 H 123.65749053414311 126.29886233337629 18.032107776260602 H 0.0 **** 0.06
35308 H 125.2408878686951 127.10646604010782 18.132476022905934 H 0.0 **** 0.06
35309 H 124.4576189536183 126.87380405568496 16.55079752968777 H 0.0 **** 0.06
35310 H 125.11582812615109 125.47412629454732 17.431716634050815 H 0.0 **** 0.06
35311 C 20.425613461932357 22.061968926572575 93.43507627049573 C 0.0 **** -0.24
35312 H 20.566576457032966 20.98501684123255 93.52401153247455 H 0.0 **** 0.06
35313 H 21.2052323133004 22.478027279927915 92.79698948331331 H 0.0 **** 0.06
35314 H 20.48148160054052 22.51752637966385 94.42345018600959 H 0.0 **** 0.06
35315 H 19.44866624835376 22.264909014098237 92.99574799427393 H 0.0 **** 0.06
35316 C 153.1993973516523 83.05492240300578 98.36313836522388 C 0.0 **** -0.24
35317 H 154.1886920017232 83.04756384386442 98.82025847113468 H 0.0 **** 0.06
35318 H 152.44543865215644 82.86453860733934 99.12727327529603 H 0.0 **** 0.06
35319 H 153.14716224988447 82.27811885963257 97.59923152963879 H 0.0 **** 0.06
35320 H 153.0173444247015 84.02669016148212 97.90536114964706 H 0.0 **** 0.06
35321 C 76.84457428946878 17.65551820139141 152.8216928207671 C 0.0 **** -0.24
35322 H 76.60502899234791 18.088990804213054 153.79269869616851 H 0.0 **** 0.06
35323 H 77.06061708293932 16.59420731196454 152.9413988842405 H 0.0 **** 0.06
35324 H 77.71698339538612 18.159194893861034 152.40501307975617 H 0.0 **** 0.06
35325 H 75.99618612537404 17.781461102623524 152.1492601065606 H 0.0 **** 0.06
35326 C 132.36719220639662 58.38042933718447 13.087853275793975 C 0.0 **** -0.24
35327 H 132.14882425141548 59.279981288260686 12.51308153547808 H 0.0 **** 0.06
35328 H 132.9336678659154 58.64797087493362 13.98006890069962 H 0.0 **** 0.06
35329 H 132.95300366387062 57.69257283469298 12.4783327952739 H 0.0 **** 0.06
35330 H 131.43262153319407 57.90065157568425 13.380461967173972 H 0.0 **** 0.06
35331 C 4.004462318699751 95.73436046228325 141.49321078409923 C 0.0 **** -0.24
35332 H 4.8354846246069485 95.3935714172309 140.87659536506717 H 0.0 **** 0.06
35333 H 4.373640424312271 96.42802743651423 142.24994030749377 H 0.0 **** 0.06
35334 H 3.539100051193685 94.87728603255437 141.98141799371828 H 0.0 **** 0.06
35335 H 3.2685943356243286 96.23814121963579 140.86576505532796 H 0.0 **** 0.06
35336 C 43.93128835596481 47.27831525483674 96.96661736871056 C 0.0 **** -0.24
35337 H 42.97526172975458 47.49216182771511 96.48809818714082 H 0.0 **** 0.06
35338 H 44.219986136301245 46.24784233774376 96.75829782993168 H 0.0 **** 0.06
35339 H 43.83751208905251 47.41869087239719 98.04361995165817 H 0.0 **** 0.06
35340 H 44.691639690497425 47.95553854450344 96.5771506430359 H 0.0 **** 0.06
35341 C 11.931703889259026 57.1664374918858 34.06976577090359 C 0.0 **** -0.24
35342 H 11.883834859933465 56.11811048757755 33.77431032884357 H 0.0 **** 0.06
35343 H 11.259862900820274 57.75145188904588 33.44123755824518 H 0.0 **** 0.06
35344 H 12.951598692151613 57.53148139029611 33.95115977907483 H 0.0 **** 0.06
35345 H 11.629208595951638 57.26342446754995 35.113364849827065 H 0.0 **** 0.06
35346 C 117.8455990299347 76.45791245537235 11.118486965938757 C 0.0 **** -0.24
35347 H 116.86606671173911 76.61465353607687 10.667456469900799 H 0.0 **** 0.06
35348 H 118.43127423091516 75.78653754975917 10.489833502564125 H 0.0 **** 0.06
35349 H 117.724124498469 76.01622340171025 12.108161463015563 H 0.0 **** 0.06
35350 H 118.36069320981323 77.41437431373694 11.207535010901438 H 0.0 **** 0.06
35351 C 136.93384047135638 57.39140585381499 153.69102698840786 C 0.0 **** -0.24
35352 H 136.80714468041782 57.52539710434931 152.61669399528867 H 0.0 **** 0.06
35353 H 137.99569082884275 57.41287937241468 153.93672104567992 H 0.0 **** 0.06
35354 H 136.51032090177503 56.43210769732731 153.98887272707375 H 0.0 **** 0.06
35355 H 136.4213465578977 58.19471779303184 154.2198225606993 H 0.0 **** 0.06
35356 C 146.75740657118448 104.20728584891432 67.50016917396681 C 0.0 **** -0.24
35357 H 146.52177711329304 103.1517554364994 67.3613052531603 H 0.0 **** 0.06
35358 H 145.90041811776672 104.81183988875628 67.20173645805718 H 0.0 **** 0.06
35359 H 147.6200168418605 104.47064948959931 66.88799601795805 H 0.0 **** 0.06
35360 H 146.98513635363335 104.39401080739157 68.54948599106254 H 0.0 **** 0.06
35361 C 24.073318903109367 98.90921732332345 86.6828913317135 C 0.0 **** -0.24
35362 H 24.04815088867184 98.27930163386304 85.79396296755687 H 0.0 **** 0.06
35363 H 23.194975981617205 98.7069670764576 87.29658949320657 H 0.0 **** 0.06
35364 H 24.075163825820255 99.95826030404874 86.38565354950404 H 0.0 **** 0.06
35365 H 24.974903039385424 98.69255426872434 87.25633273053336 H 0.0 **** 0.06
35366 C 21.95882296295187 108.07736324747356 8.705048792756102 C 0.0 **** -0.24
35367 H 21.722309971396953 109.01623998979707 9.205505501072366 H 0.0 **** 0.06
35368 H 21.387417493758107 107.26852386022873 9.161825028547035 H 0.0 **** 0.06
35369 H 23.023952910523235 107.87109368600738 8.804123922655478 H 0.0 **** 0.06
35370 H 21.69950757821232 108.15378803081717 7.649473302240828 H 0.0 **** 0.06
35371 C 0.8410487260413291 70.75248259852054 63.21047523577272 C 0.0 **** -0.24
35372 H 1.4535715137730776 69.85571765371282 63.30438118248185 H 0.0 **** 0.06
35373 H 1.4574322795927515 71.57710188006618 62.851538986277944 H 0.0 **** 0.06
35374 H 0.4216685994169964 71.00931687777029 64.18301125323183 H 0.0 **** 0.06
35375 H 0.032854234453889575 70.56706215956126 62.503800808858614 H 0.0 **** 0.06
35376 C 101.49115720011687 152.8617559484352 69.52830246270702 C 0.0 **** -0.24
35377 H 100.58007440148637 153.2980720560273 69.11974252591648 H 0.0 **** 0.06
35378 H 102.34847034107824 153.19185281999432 68.94043841988999 H 0.0 **** 0.06
35379 H 101.42162826847823 151.77434846941247 69.4906119270552 H 0.0 **** 0.06
35380 H 101.61540021267857 153.18147074629445 70.56310292112522 H 0.0 **** 0.06
35381 C 45.112320296869655 21.35723027284422 137.4366514682483 C 0.0 **** -0.24
35382 H 45.02574840116324 22.189633900204853 138.1358648832957 H 0.0 **** 0.06
35383 H 44.65312146794429 21.63262147480097 136.48707262138478 H 0.0 **** 0.06
35384 H 44.60383061769596 20.4848843009284 137.84695696572228 H 0.0 **** 0.06
35385 H 46.164540196125415 21.123183234623525 137.2780794251075 H 0.0 **** 0.06
35386 C 117.441094798933 145.80197376478412 154.1358508701548 C 0.0 **** -0.24
35387 H 118.24647394690678 146.47486714361378 154.43172214378296 H 0.0 **** 0.06
35388 H 117.13485382411443 146.03117803927626 153.11456601313057 H 0.0 **** 0.06
35389 H 116.59245444830856 145.93369093202853 154.80715184702547 H 0.0 **** 0.06
35390 H 117.7907765374569 144.77149346579574 154.18860365462717 H 0.0 **** 0.06
35391 C 46.17421635697639 120.54597784229867 49.42209202069829 C 0.0 **** -0.24
35392 H 45.876887373135276 121.43207009036345 48.86090678302182 H 0.0 **** 0.06
35393 H 45.408329856830846 120.31171023307448 50.16216934404706 H 0.0 **** 0.06
35394 H 47.120919167864486 120.73640911335659 49.926571496793485 H 0.0 **** 0.06
35395 H 46.28870258798008 119.70503279723795 48.7383017145051 H 0.0 **** 0.06
35396 C 15.973317387281554 71.48112656909932 122.28385818570203 C 0.0 **** -0.24
35397 H 16.15742929488988 70.47874344057186 122.6700727851661 H 0.0 **** 0.06
35398 H 15.034855180673958 71.48976598510646 121.72999548927032 H 0.0 **** 0.06
35399 H 16.78942530474916 71.77081324364336 121.62211703843133 H 0.0 **** 0.06
35400 H 15.912285953997355 72.18446174892038 123.11422294838798 H 0.0 **** 0.06
35401 C 132.02341657642737 124.30027281166727 114.51450163186018 C 0.0 **** -0.24
35402 H 131.06096521221062 124.76551950984802 114.29885429816952 H 0.0 **** 0.06
35403 H 131.88803367496058 123.50993447653411 115.25177539013836 H 0.0 **** 0.06
35404 H 132.70908101725541 125.05179818844533 114.90812555361586 H 0.0 **** 0.06
35405 H 132.43481470102515 123.87647155543502 113.5985622642668 H 0.0 **** 0.06
35406 C 71.12465468650362 69.40423560501512 11.60259682865145 C 0.0 **** -0.24
35407 H 70.03782668725194 69.45285641694366 11.536454803298675 H 0.0 **** 0.06
35408 H 71.56324813183329 69.81045802097748 10.690819436410088 H 0.0 **** 0.06
35409 H 71.4358146168296 68.36593186230766 11.724493265821067 H 0.0 **** 0.06
35410 H 71.46231965322055 69.98712083780208 12.459186003182381 H 0.0 **** 0.06
35411 C 112.0481924434963 65.36181757343017 127.76941994850998 C 0.0 **** -0.24
35412 H 112.34533401189094 66.37366025879504 128.04207737968952 H 0.0 **** 0.06
35413 H 111.08912627453083 65.12822003410025 128.23176736143597 H 0.0 **** 0.06
35414 H 112.80124619408656 64.65509476814488 128.1187475818923 H 0.0 **** 0.06
35415 H 111.95689808616919 65.28952165030775 126.68569927739529 H 0.0 **** 0.06
35416 C 37.43350438695056 130.14935776243956 25.521041736414034 C 0.0 **** -0.24
35417 H 37.7881799505342 129.646505315927 26.420213293600078 H 0.0 **** 0.06
35418 H 36.436297454655204 130.55347546362663 25.699658980806007 H 0.0 **** 0.06
35419 H 37.39469123155139 129.43706698656007 24.697412439250314 H 0.0 **** 0.06
35420 H 38.11430869459373 130.9618895715963 25.266219394678338 H 0.0 **** 0.06
35421 C 70.16671423557557 45.96492511630183 91.48681789406756 C 0.0 **** -0.24
35422 H 71.12135746761606 45.70939765691256 91.02672129583449 H 0.0 **** 0.06
35423 H 70.17174861614981 47.01675127120244 91.77333711068458 H 0.0 **** 0.06
35424 H 70.01303619667314 45.3474914852292 92.37166794825356 H 0.0 **** 0.06
35425 H 69.36084797602159 45.786369838736675 90.77417178792116 H 0.0 **** 0.06
35426 C 32.51310023138002 25.89529216350015 76.43628405306508 C 0.0 **** -0.24
35427 H 31.84658771852193 26.733889998849136 76.63932251001032 H 0.0 **** 0.06
35428 H 32.7317995174171 25.371990510339998 77.36783915033024 H 0.0 **** 0.06
35429 H 33.44036916911523 26.266800679911526 76.00029369746917 H 0.0 **** 0.06
35430 H 32.03246504302385 25.209728883733007 75.73794124412922 H 0.0 **** 0.06
35431 C 115.21851435459399 100.37055404977264 114.38922395833873 C 0.0 **** -0.24
35432 H 114.91718429649373 100.87851726871705 113.47405437423481 H 0.0 **** 0.06
35433 H 116.0600507165365 100.8985359601883 114.8378524384201 H 0.0 **** 0.06
35434 H 115.51343598202209 99.34711718256276 114.15643202708543 H 0.0 **** 0.06
35435 H 114.38309250793023 100.35709892237853 115.09029399697431 H 0.0 **** 0.06
35436 C 122.02165245998157 89.40236722141138 160.69614029530769 C 0.0 **** -0.24
35437 H 121.98463714826977 89.84269914203698 159.7004292528594 H 0.0 **** 0.06
35438 H 121.006366141407 89.2275924252397 161.05429858985335 H 0.0 **** 0.06
35439 H 122.53450116546051 90.08292012607725 161.3754567098775 H 0.0 **** 0.06
35440 H 122.56081114497991 88.45583989026161 160.65569546991625 H 0.0 **** 0.06
35441 C 106.44447017724161 155.27057111115897 75.93366268171897 C 0.0 **** -0.24
35442 H 105.49535717109666 155.7729096669301 75.74908395460386 H 0.0 **** 0.06
35443 H 106.6780027830232 155.31555431924141 76.99772842682165 H 0.0 **** 0.06
35444 H 107.23296460645972 155.76594353283735 75.36743963071962 H 0.0 **** 0.06
35445 H 106.37210546073393 154.22914249497774 75.62070960140403 H 0.0 **** 0.06
35446 C 80.3469577055208 54.388859769636156 128.091996295224 C 0.0 **** -0.24
35447 H 79.84735016093045 55.197073545621194 128.62673704512437 H 0.0 **** 0.06
35448 H 81.23196028206355 54.0784163723704 128.6459874002868 H 0.0 **** 0.06
35449 H 80.64121136694608 54.73587005225052 127.10157037792487 H 0.0 **** 0.06
35450 H 79.66462968780706 53.54412646170198 127.99201128622218 H 0.0 **** 0.06
35451 C 12.919482013041062 14.633542117662728 112.195872783266 C 0.0 **** -0.24
35452 H 13.649466675748442 14.436881577786608 111.41059774646388 H 0.0 **** 0.06
35453 H 12.149583018459566 15.305576844401116 111.814756310174 H 0.0 **** 0.06
35454 H 13.417783535814095 15.097005712405405 113.04722343874337 H 0.0 **** 0.06
35455 H 12.461051144650412 13.696135941816465 112.50892648436493 H 0.0 **** 0.06
35456 C 88.3445789148411 139.89588987034128 36.28109407103889 C 0.0 **** -0.24
35457 H 89.03130777102547 140.72387000630505 36.45673639308038 H 0.0 **** 0.06
35458 H 87.36354571910468 140.14524189451896 36.68611790891464 H 0.0 **** 0.06
35459 H 88.72310430504649 138.99904802179137 36.77314501598127 H 0.0 **** 0.06
35460 H 88.26175612209008 139.71426940334868 35.20970654299465 H 0.0 **** 0.06
35461 C 51.56851484939634 112.89127410284092 142.19988537171375 C 0.0 **** -0.24
35462 H 52.08953316427474 112.74010506942966 141.2544131623601 H 0.0 **** 0.06
35463 H 50.72835048895561 113.56787474699246 142.04684210644396 H 0.0 **** 0.06
35464 H 52.25628769143441 113.32317602797497 142.9279204986887 H 0.0 **** 0.06
35465 H 51.202976449257804 111.93354208716775 142.56981497104007 H 0.0 **** 0.06
35466 C 23.221987311114887 161.34529339388646 55.22773515017235 C 0.0 **** -0.24
35467 H 23.253548076493736 161.2783851134554 56.31490350652382 H 0.0 **** 0.06
35468 H 24.11543893832762 161.8555072257596 54.869221745352604 H 0.0 **** 0.06
35469 H 22.336398532150213 161.90485651109623 54.925200007430675 H 0.0 **** 0.06
35470 H 23.180537402449296 160.3425245130082 54.80358623261651 H 0.0 **** 0.06
35471 C 10.425009520744837 82.67838863948157 131.01473126753933 C 0.0 **** -0.24
35472 H 9.72730549889721 82.08816138899186 130.42003994579852 H 0.0 **** 0.06
35473 H 10.286841736967894 82.44728567012314 132.07123302090974 H 0.0 **** 0.06
35474 H 10.238452522768085 83.73941060407293 130.8466010938592 H 0.0 **** 0.06
35475 H 11.44632067318387 82.4384462230816 130.72022150373698 H 0.0 **** 0.06
35476 C 110.99346534388488 101.8109311580578 22.501200258254542 C 0.0 **** -0.24
35477 H 111.09797719931342 100.90261661391543 23.094889424923558 H 0.0 **** 0.06
35478 H 110.82304044449299 101.54488721631682 21.457699491978367 H 0.0 **** 0.06
35479 H 111.90433585462767 102.40322440253044 22.581433953536298 H 0.0 **** 0.06
35480 H 110.148437855704 102.3908759457706 22.87148450811705 H 0.0 **** 0.06
35481 C 93.36307928754195 99.43911633317671 43.57688328709747 C 0.0 **** -0.24
35482 H 92.95867360213401 98.45207670750494 43.80280074289152 H 0.0 **** 0.06
35483 H 94.41602581150954 99.34814340012147 43.31030234801466 H 0.0 **** 0.06
35484 H 93.2632413177052 100.08124202180403 44.45178032372297 H 0.0 **** 0.06
35485 H 92.81217559267805 99.87393251355164 42.742548892846344 H 0.0 **** 0.06
35486 C 110.32167147965183 24.50870777978588 86.0290272183368 C 0.0 **** -0.24
35487 H 109.96872775405595 25.24446764125009 85.30639798504397 H 0.0 **** 0.06
35488 H 109.85317643105313 23.54589117552525 85.82495509060945 H 0.0 **** 0.06
35489 H 110.06150782540459 24.834561055899314 87.03631535150124 H 0.0 **** 0.06
35490 H 111.40470740503773 24.409916193411902 85.94645418258493 H 0.0 **** 0.06
35491 C 137.3936063491039 96.71437644128298 83.93432754710422 C 0.0 **** -0.24
35492 H 138.3802448893545 96.99238719495864 84.30740035872326 H 0.0 **** 0.06
35493 H 136.82985817335503 97.61485209375729 83.69240106607074 H 0.0 **** 0.06
35494 H 136.86263171504967 96.14776831881596 84.70045748695301 H 0.0 **** 0.06
35495 H 137.50329677314568 96.10097964291762 83.03952407122205 H 0.0 **** 0.06
35496 C 70.48292104797721 93.59745476736487 136.5844495871039 C 0.0 **** -0.24
35497 H 69.98976250470373 93.36588245632373 135.64041634103674 H 0.0 **** 0.06
35498 H 71.44191476892046 93.07986002215603 136.63040202552128 H 0.0 **** 0.06
35499 H 69.85375574626724 93.27155308313985 137.4130803788242 H 0.0 **** 0.06
35500 H 70.64758938321114 94.67286418065424 136.65420487863943 H 0.0 **** 0.06
35501 C 49.86312855162859 141.22298987988557 108.31995024291481 C 0.0 **** -0.24
35502 H 49.19824543065806 140.4601761540813 108.72461121099784 H 0.0 **** 0.06
35503 H 50.6895395160397 140.74239844155983 107.79559285858028 H 0.0 **** 0.06
35504 H 50.25489859567847 141.8313950525411 109.13479085272766 H 0.0 **** 0.06
35505 H 49.31046767083302 141.8562342950268 107.62639109045344 H 0.0 **** 0.06
35506 C 110.56316393821075 88.27065260144764 87.35911991570546 C 0.0 **** -0.24
35507 H 110.45775377414253 89.02701629400087 88.1367017503812 H 0.0 **** 0.06
35508 H 110.31555448124413 87.29140594582182 87.76902161703389 H 0.0 **** 0.06
35509 H 111.5919366319645 88.26293782205758 86.99727033249172 H 0.0 **** 0.06
35510 H 109.8893348177827 88.50109442253606 86.53461478841466 H 0.0 **** 0.06
35511 C 21.465093631687466 60.99349680305815 108.24926276815489 C 0.0 **** -0.24
35512 H 21.53210488764563 59.906365200941835 108.29324267862268 H 0.0 **** 0.06
35513 H 21.995828759549397 61.35417163145284 107.3680387587491 H 0.0 **** 0.06
35514 H 21.914984074169297 61.42112730934096 109.14514869230356 H 0.0 **** 0.06
35515 H 20.41822890869591 61.29080258557897 108.19092437766977 H 0.0 **** 0.06
35516 C 113.66892091905973 58.462641068556024 41.23268635172528 C 0.0 **** -0.24
35517 H 113.82738719119064 57.80464080741119 42.08707733456663 H 0.0 **** 0.06
35518 H 113.59342345530592 57.8656679461194 40.32316993295211 H 0.0 **** 0.06
35519 H 114.50841541392725 59.15346837273022 41.14546519584968 H 0.0 **** 0.06
35520 H 112.74645761581507 59.02678714796322 41.37503294353269 H 0.0 **** 0.06
35521 C 119.58017010446736 104.43502103173313 33.14957278590839 C 0.0 **** -0.24
35522 H 119.3013376837649 105.06290033536493 32.30302631181621 H 0.0 **** 0.06
35523 H 118.71608146669323 103.85301326554097 33.46922826570324 H 0.0 **** 0.06
35524 H 119.9198657182348 105.06499332387179 33.97249908770493 H 0.0 **** 0.06
35525 H 120.38357757295176 103.7611434221032 32.852488194195985 H 0.0 **** 0.06
35526 C 82.89687126853806 145.85483137342578 89.27648001261399 C 0.0 **** -0.24
35527 H 83.92053247992379 146.1979391725443 89.12611837599539 H 0.0 **** 0.06
35528 H 82.84228765045623 144.78136330311133 89.09255389174537 H 0.0 **** 0.06
35529 H 82.23431946417395 146.37654135170396 88.58587907103191 H 0.0 **** 0.06
35530 H 82.59142695474361 146.06354196904815 90.30227801661225 H 0.0 **** 0.06
35531 C 48.950147889752316 17.724090478583967 82.53913817053976 C 0.0 **** -0.24
35532 H 48.4582023198672 18.6401807127995 82.21359544212675 H 0.0 **** 0.06
35533 H 49.50229405854705 17.292299883297282 81.70381285940002 H 0.0 **** 0.06
35534 H 48.200380330646595 17.012971198820573 82.88631945093778 H 0.0 **** 0.06
35535 H 49.63948850172213 17.951589905661223 83.35160561943668 H 0.0 **** 0.06
35536 C 117.43914555859672 81.68047611052319 120.50419182738693 C 0.0 **** -0.24
35537 H 117.33627512064405 82.5197940881008 119.81568918344647 H 0.0 **** 0.06
35538 H 117.57907460696416 80.76018422272844 119.93581905997692 H 0.0 **** 0.06
35539 H 116.53870189511707 81.59879715949404 121.11303385572947 H 0.0 **** 0.06
35540 H 118.30182033945971 81.84504576590473 121.14981238726793 H 0.0 **** 0.06
35541 C 69.07270450141411 92.4198909348595 30.441589870053797 C 0.0 **** -0.24
35542 H 69.83831378672251 92.52472239514324 31.21067611967009 H 0.0 **** 0.06
35543 H 69.18240308946227 91.45325165477342 29.948773866035516 H 0.0 **** 0.06
35544 H 69.18395613867604 93.21680063646293 29.70732574125472 H 0.0 **** 0.06
35545 H 68.08591705229227 92.4837929713922 30.900561467790986 H 0.0 **** 0.06
35546 C 98.18718259891892 112.44820210112721 18.123685833224783 C 0.0 **** -0.24
35547 H 99.10289196459655 112.5049822138964 17.534087435422407 H 0.0 **** 0.06
35548 H 97.58841904674097 113.34322326320984 17.949765633056757 H 0.0 **** 0.06
35549 H 98.44010556214903 112.37874909728833 19.180739782711953 H 0.0 **** 0.06
35550 H 97.61791220324812 111.56754594575858 17.826178170268065 H 0.0 **** 0.06
35551 C 39.61667085594888 15.607492144656646 99.1657663745952 C 0.0 **** -0.24
35552 H 38.538960781681865 15.538046461429815 99.30872128718349 H 0.0 **** 0.06
35553 H 39.82947766527661 15.904550016814142 98.13818680148492 H 0.0 **** 0.06
35554 H 40.07254393995396 14.63764575712429 99.36555270761178 H 0.0 **** 0.06
35555 H 40.02701905690746 16.34975225794045 99.85111676850684 H 0.0 **** 0.06
35556 C 101.53489488047342 143.7313409747989 101.50351898198468 C 0.0 **** -0.24
35557 H 101.37896118689463 143.57347000080958 100.43719668560854 H 0.0 **** 0.06
35558 H 100.77545397116239 144.41532842022343 101.88453287377004 H 0.0 **** 0.06
35559 H 102.52430285115025 144.15848482031586 101.66606389766082 H 0.0 **** 0.06
35560 H 101.45960590381674 142.77743673701713 102.02637666586497 H 0.0 **** 0.06
35561 C 37.67130704483297 18.9045522776767 70.09053114071692 C 0.0 **** -0.24
35562 H 38.17989299810692 19.2824369782782 69.20321137990022 H 0.0 **** 0.06
35563 H 37.13377927213975 19.72010728921809 70.57621810641083 H 0.0 **** 0.06
35564 H 38.40626960894804 18.49182725161583 70.78149635935799 H 0.0 **** 0.06
35565 H 36.96660932819144 18.125821383716172 69.80175938346753 H 0.0 **** 0.06
35566 C 152.34375557779344 123.8218451319475 78.76433156981228 C 0.0 **** -0.24
35567 H 152.3484008928402 123.14622859659534 77.90847317008043 H 0.0 **** 0.06
35568 H 153.32888297690283 123.82287697810645 79.2304729523833 H 0.0 **** 0.06
35569 H 151.59877671292264 123.48786514375769 79.4866761695716 H 0.0 **** 0.06
35570 H 152.098823429849 124.82895247762352 78.4287278504974 H 0.0 **** 0.06
35571 C 37.66130227357729 31.848736688591032 5.219372463628247 C 0.0 **** -0.24
35572 H 38.18613113380215 32.7157549700745 4.8196140504921345 H 0.0 **** 0.06
35573 H 38.3510593071379 31.007366339723262 5.28891409691397 H 0.0 **** 0.06
35574 H 36.834956139491055 31.587954307983466 4.558797376470608 H 0.0 **** 0.06
35575 H 37.275028824153225 32.084193607807066 6.211589047201755 H 0.0 **** 0.06
35576 C 5.194110547798857 41.17082584677138 48.0298285772523 C 0.0 **** -0.24
35577 H 5.356522830923673 40.10204004917426 47.88443574079747 H 0.0 **** 0.06
35578 H 4.158827743255458 41.41674483797 47.79430530897302 H 0.0 **** 0.06
35579 H 5.86004318195539 41.73070374731472 47.37318002620003 H 0.0 **** 0.06
35580 H 5.403175514967359 41.431280627751036 49.067625771568075 H 0.0 **** 0.06
35581 C 80.65354562413314 21.223645632500705 155.93325774638254 C 0.0 **** -0.24
35582 H 80.33664242743801 22.26492168000601 155.87297160176462 H 0.0 **** 0.06
35583 H 79.77921565309614 20.585795984522946 156.07092346200164 H 0.0 **** 0.06
35584 H 81.33151833954354 21.097565038311103 156.7769932005596 H 0.0 **** 0.06
35585 H 81.16406689922911 20.945965624662932 155.01096565347694 H 0.0 **** 0.06
35586 C 36.47999070742185 45.51713419106268 75.66462687801516 C 0.0 **** -0.24
35587 H 35.94397823233544 44.590420612296896 75.46154215993914 H 0.0 **** 0.06
35588 H 35.982400574104076 46.055657476889806 76.47096835427018 H 0.0 **** 0.06
35589 H 36.49069515120482 46.1348542693066 74.76686679728223 H 0.0 **** 0.06
35590 H 37.504645209322405 45.28622966163668 75.95897048562779 H 0.0 **** 0.06
35591 C 14.6770824575336 127.81659376601579 42.418390887625335 C 0.0 **** -0.24
35592 H 13.753305381579949 128.39052911613823 42.49300985787599 H 0.0 **** 0.06
35593 H 14.838700465767552 127.52038249007899 41.381605772024045 H 0.0 **** 0.06
35594 H 14.601623347915556 126.9273372211423 43.043667271438 H 0.0 **** 0.06
35595 H 15.51336254956238 128.42922259241726 42.75669757638656 H 0.0 **** 0.06
35596 C 67.37433544457454 50.816297238986536 44.26204546168324 C 0.0 **** -0.24
35597 H 66.70100888314636 50.748679440517705 43.40817193540319 H 0.0 **** 0.06
35598 H 68.4003233153984 50.66245507417456 43.92826361393132 H 0.0 **** 0.06
35599 H 67.11125999976423 50.05279423692161 44.99459194637441 H 0.0 **** 0.06
35600 H 67.28456064720646 51.80322570119624 44.7168361573697 H 0.0 **** 0.06
35601 C 76.31863386853675 70.21073076451177 148.569988792029 C 0.0 **** -0.24
35602 H 76.41847391444014 71.0489368437581 147.88084194911082 H 0.0 **** 0.06
35603 H 75.3597458101629 70.27536232430174 149.08409705331985 H 0.0 **** 0.06
35604 H 77.12613955347825 70.24357687936345 149.30091596774992 H 0.0 **** 0.06
35605 H 76.37008870138493 69.2750978925078 148.01268958952966 H 0.0 **** 0.06
35606 C 10.31955115183763 13.145680277431921 47.36477445695327 C 0.0 **** -0.24
35607 H 9.52271599327004 13.100262429600804 46.62247209089756 H 0.0 **** 0.06
35608 H 11.226244897968854 13.536114432591603 46.90212719241599 H 0.0 **** 0.06
35609 H 10.511406355560183 12.145895169379514 47.75354065506386 H 0.0 **** 0.06
35610 H 10.01734164899905 13.801303600792124 48.18196987830966 H 0.0 **** 0.06
35611 C 7.5892404362477635 59.32250859008275 115.29828545653234 C 0.0 **** -0.24
35612 H 7.18079391455484 60.22488127077577 114.84375511880742 H 0.0 **** 0.06
35613 H 6.930598908418631 58.48015647499628 115.08839241859658 H 0.0 **** 0.06
35614 H 7.668939168812756 59.46323480030139 116.37672559603433 H 0.0 **** 0.06
35615 H 8.57843586836674 59.123351511526764 114.88472803101314 H 0.0 **** 0.06
35616 C 147.1478869272898 17.542943838070414 19.432663857401593 C 0.0 **** -0.24
35617 H 147.69007794617596 18.109017086659776 20.190240810020867 H 0.0 **** 0.06
35618 H 146.1543816973048 17.971743701569437 19.30192408408169 H 0.0 **** 0.06
35619 H 147.05761327085577 16.504536265178217 19.751314499436774 H 0.0 **** 0.06
35620 H 147.69182132042874 17.58754790034118 18.488709020705528 H 0.0 **** 0.06
35621 C 21.514727465563396 139.2248378106989 39.59312837769804 C 0.0 **** -0.24
35622 H 22.449637263665466 138.75816560893983 39.90336470847426 H 0.0 **** 0.06
35623 H 21.23191090257012 138.85317937461193 38.608032104536264 H 0.0 **** 0.06
35624 H 21.64504849512622 140.30603766494326 39.55093655477542 H 0.0 **** 0.06
35625 H 20.731515610221493 138.98134056330554 40.31240940460438 H 0.0 **** 0.06
35626 C 148.3998041348161 66.22956821279531 29.573216621685816 C 0.0 **** -0.24
35627 H 148.21398755100444 67.24000918212755 29.209096997697145 H 0.0 **** 0.06
35628 H 148.4115460636445 65.53680732620064 28.732042844910325 H 0.0 **** 0.06
35629 H 147.6120405635455 65.94458271869135 30.270019073092982 H 0.0 **** 0.06
35630 H 149.3631827744877 66.19972213456951 30.08293780562255 H 0.0 **** 0.06
35631 C 115.15925004649708 25.84315549206468 34.97417145126592 C 0.0 **** -0.24
35632 H 115.04700563108375 24.791546481020447 34.71083036681735 H 0.0 **** 0.06
35633 H 114.4671264037824 26.091881057423763 35.77901325520821 H 0.0 **** 0.06
35634 H 114.94201774956076 26.461907203511828 34.10380297237636 H 0.0 **** 0.06
35635 H 116.18262050131995 26.027796399360284 35.30430713831821 H 0.0 **** 0.06
35636 C 89.36083712049374 34.041322401020324 159.6463179175996 C 0.0 **** -0.24
35637 H 88.74709944497607 33.59449412989284 158.86401335762946 H 0.0 **** 0.06
35638 H 89.88406775542705 33.25484733049598 160.19108259301944 H 0.0 **** 0.06
35639 H 88.72452659292586 34.59805613497295 160.3334905932306 H 0.0 **** 0.06
35640 H 90.08789531717699 34.71726690592877 159.1954395725173 H 0.0 **** 0.06
35641 C 51.81301024684541 14.867752532120157 147.11278020545274 C 0.0 **** -0.24
35642 H 52.2629654026465 15.164792759105218 146.16606362542268 H 0.0 **** 0.06
35643 H 52.39433784738185 15.282282253020746 147.93719832005456 H 0.0 **** 0.06
35644 H 51.802789488585745 13.780222547949151 147.18503616622763 H 0.0 **** 0.06
35645 H 50.791391793138246 15.24451313627057 147.16260027268478 H 0.0 **** 0.06
35646 C 86.07595605164072 81.39909944959764 146.7250801024882 C 0.0 **** -0.24
35647 H 86.23055963963603 81.35496767574654 147.80345572924793 H 0.0 **** 0.06
35648 H 85.05762263933684 81.08668493951316 146.49221938630103 H 0.0 **** 0.06
35649 H 86.78299334260089 80.73485364490878 146.2295878302688 H 0.0 **** 0.06
35650 H 86.23138077471073 82.42076879346432 146.37831683104912 H 0.0 **** 0.06
35651 C 110.0632114097478 114.51346798763086 129.8352399537944 C 0.0 **** -0.24
35652 H 109.74407449505978 115.1751070115113 129.02917089615298 H 0.0 **** 0.06
35653 H 110.1307073549188 115.07978164118214 130.76412153863845 H 0.0 **** 0.06
35654 H 111.03827339630516 114.09162368877782 129.59346043182484 H 0.0 **** 0.06
35655 H 109.33703722696188 113.70905233121351 129.95260846102548 H 0.0 **** 0.06
35656 C 65.4065046048747 111.67133428817897 17.054666667303195 C 0.0 **** -0.24
35657 H 66.17690209430134 111.80840533677105 17.813356383891687 H 0.0 **** 0.06
35658 H 64.58986965719885 111.07890779174858 17.468515789056028 H 0.0 **** 0.06
35659 H 65.83177035278268 111.15397574056146 16.1946672295108 H 0.0 **** 0.06
35660 H 65.02803988096483 112.64438305656518 16.742882482559253 H 0.0 **** 0.06
35661 C 144.1359112066983 36.91612458040633 102.73814940506972 C 0.0 **** -0.24
35662 H 143.8262140791717 37.25216895831106 103.72801188955941 H 0.0 **** 0.06
35663 H 145.21804689277366 37.010430559072375 102.64478125679074 H 0.0 **** 0.06
35664 H 143.6510103874413 37.52928345388324 101.97926126171723 H 0.0 **** 0.06
35665 H 143.84912897502605 35.87419170581933 102.60193765209857 H 0.0 **** 0.06
35666 C 22.569075649706193 93.89257989812539 86.07304353341726 C 0.0 **** -0.24
35667 H 22.333434848228833 92.91830667956488 85.64505292790261 H 0.0 **** 0.06
35668 H 23.260522893587357 93.76436950601742 86.90600731903493 H 0.0 **** 0.06
35669 H 21.652882354410274 94.36419562644872 86.42957450237085 H 0.0 **** 0.06
35670 H 23.02912185141978 94.5225087499791 85.31158638107064 H 0.0 **** 0.06
35671 C 162.03714524019446 100.19626468743368 127.18812978451581 C 0.0 **** -0.24
35672 H 162.25589863325604 101.08394442173042 126.59355301411091 H 0.0 **** 0.06
35673 H 162.80843403758652 99.44453341398392 127.01537391163754 H 0.0 **** 0.06
35674 H 161.06711797813796 99.7943178162696 126.89819939043667 H 0.0 **** 0.06
35675 H 162.02043524468218 100.46202506539518 128.2452475937631 H 0.0 **** 0.06
35676 C 76.64243817852497 65.98747490063874 24.876437006918003 C 0.0 **** -0.24
35677 H 75.91888160122045 66.16511760321549 24.081566722164396 H 0.0 **** 0.06
35678 H 76.89080261875216 64.92618162514422 24.911100794394223 H 0.0 **** 0.06
35679 H 76.21526072126204 66.29227632992617 25.83194230405053 H 0.0 **** 0.06
35680 H 77.54570171962507 66.56484446933175 24.68124687046707 H 0.0 **** 0.06
35681 C 55.39229699072234 45.10359966099199 145.228960176638 C 0.0 **** -0.24
35682 H 55.76157221641442 46.06979777436578 145.57394552984573 H 0.0 **** 0.06
35683 H 56.21014643521136 44.3826187714219 145.22636847659948 H 0.0 **** 0.06
35684 H 54.99505360114962 45.20681883719277 144.21905654022012 H 0.0 **** 0.06
35685 H 54.60336827807825 44.75795201465408 145.89703206635684 H 0.0 **** 0.06
35686 C 159.98913516474013 62.08663280397286 1.14369632569597 C 0.0 **** -0.24
35687 H 159.1548216784931 61.463187909364535 0.8228500790771989 H 0.0 **** 0.06
35688 H 159.6495828957648 63.11623764169485 1.2580597879804358 H 0.0 **** 0.06
35689 H 160.78100671101708 62.04602921491835 0.3949822986714935 H 0.0 **** 0.06
35690 H 160.3710660436372 61.72035621948271 2.095981517393568 H 0.0 **** 0.06
35691 C 6.157241552297791 57.97267084065179 52.241674545962326 C 0.0 **** -0.24
35692 H 6.5489798850864815 58.986688087131284 52.31621938186849 H 0.0 **** 0.06
35693 H 5.739663819114895 57.672820221599835 53.202384321616776 H 0.0 **** 0.06
35694 H 6.962799879514307 57.29153234902974 51.96574879516233 H 0.0 **** 0.06
35695 H 5.378129422953009 57.94009435868229 51.48001588119412 H 0.0 **** 0.06
35696 C 54.55166828943982 127.90256969901566 23.451814618674028 C 0.0 **** -0.24
35697 H 53.62071240067485 127.63074955160027 23.9506811706706 H 0.0 **** 0.06
35698 H 54.55759959927585 128.9752501272325 23.253482997173982 H 0.0 **** 0.06
35699 H 54.631894436530786 127.35810938505824 22.51157073944058 H 0.0 **** 0.06
35700 H 55.3951457193761 127.64714645830276 24.093040508721877 H 0.0 **** 0.06
35701 C 33.62100872618147 46.49548272992672 53.791646571885835 C 0.0 **** -0.24
35702 H 33.39077358692451 47.55726601762899 53.87742463366361 H 0.0 **** 0.06
35703 H 33.747707292637884 46.070170800985366 54.78696665972528 H 0.0 **** 0.06
35704 H 34.54247725837358 46.368436325797035 53.22203981331231 H 0.0 **** 0.06
35705 H 32.804885795880125 45.98733260311151 53.27910522423802 H 0.0 **** 0.06
35706 C 51.94263163272771 105.14274522920851 66.89901460046889 C 0.0 **** -0.24
35707 H 51.86608789017768 105.63376349750902 65.92864766693577 H 0.0 **** 0.06
35708 H 51.47792243541758 105.76918323675483 67.65997624248291 H 0.0 **** 0.06
35709 H 52.99348102925582 104.9892269381753 67.14590234273288 H 0.0 **** 0.06
35710 H 51.43441261318664 104.17939886821935 66.85987299357956 H 0.0 **** 0.06
35711 C 79.79900550124022 49.10414595924979 139.59256130764788 C 0.0 **** -0.24
35712 H 78.9782309327379 48.58074219976703 139.1023333367514 H 0.0 **** 0.06
35713 H 80.20024984119146 48.48044954115923 140.39277233038996 H 0.0 **** 0.06
35714 H 79.43285786173024 50.04141305427878 140.01186926384537 H 0.0 **** 0.06
35715 H 80.58353595825659 49.31252506592993 138.86602161457446 H 0.0 **** 0.06
35716 C 106.48183340592527 54.932568307420425 103.93841427937792 C 0.0 **** -0.24
35717 H 106.62704679354425 53.90437757302263 103.6077108966507 H 0.0 **** 0.06
35718 H 107.13920988636639 55.59221838690485 103.37269193757348 H 0.0 **** 0.06
35719 H 106.71542773712696 55.009285531099835 105.00078334963322 H 0.0 **** 0.06
35720 H 105.44434203912775 55.22399576289352 103.7728377804759 H 0.0 **** 0.06
35721 C 70.16460888817207 6.664712859710676 6.707545847848216 C 0.0 **** -0.24
35722 H 71.08342069262591 6.326051429047823 6.22860622226932 H 0.0 **** 0.06
35723 H 70.3173375487097 6.724264728666753 7.785163770856201 H 0.0 **** 0.06
35724 H 69.3624536242051 5.95975717888399 6.491496672874398 H 0.0 **** 0.06
35725 H 69.89717851285202 7.648353046942134 6.323503160560435 H 0.0 **** 0.06
35726 C 44.24376867184611 53.8368524777305 137.22823927193681 C 0.0 **** -0.24
35727 H 44.18057688340299 54.65934437398363 136.51537760853392 H 0.0 **** 0.06
35728 H 43.276380633361356 53.33679661975947 137.29141705026723 H 0.0 **** 0.06
35729 H 44.51662772724511 54.22614082292125 138.2086398779892 H 0.0 **** 0.06
35730 H 44.99978957281384 53.126111821771076 136.89605868575293 H 0.0 **** 0.06
35731 C 112.67155392592448 124.60025986947684 147.21935604820567 C 0.0 **** -0.24
35732 H 112.82547653105007 123.79147740399966 146.50597566597648 H 0.0 **** 0.06
35733 H 113.5931186689831 124.77697781371535 147.773164698972 H 0.0 **** 0.06
35734 H 111.87703727718898 124.3256153654938 147.91324043988968 H 0.0 **** 0.06
35735 H 112.38855310007887 125.50725397761929 146.68415037877915 H 0.0 **** 0.06
35736 C 141.47854972472203 94.56472009763951 115.83023990876475 C 0.0 **** -0.24
35737 H 141.65459536925061 93.52402185945886 116.10085391263365 H 0.0 **** 0.06
35738 H 142.05043173593896 95.21391346052047 116.49362804048923 H 0.0 **** 0.06
35739 H 140.41638093023676 94.79057133658728 115.92668439118609 H 0.0 **** 0.06
35740 H 141.79314846153216 94.73031486568385 114.79886125624262 H 0.0 **** 0.06
35741 C 149.20506731097413 105.52719758420523 55.091508096584846 C 0.0 **** -0.24
35742 H 149.21367573113685 104.4497214378151 55.25672586718197 H 0.0 **** 0.06
35743 H 148.49131399287467 105.99332905661399 55.77143422124537 H 0.0 **** 0.06
35744 H 148.91419762798324 105.73432063057066 54.06179516649834 H 0.0 **** 0.06
35745 H 150.2000955776155 105.93156588878938 55.27600163190846 H 0.0 **** 0.06
35746 C 153.90271641000007 33.29622344000484 109.81206455119434 C 0.0 **** -0.24
35747 H 153.82628993991437 32.315768962942315 110.28172917340589 H 0.0 **** 0.06
35748 H 154.35415537073183 33.19148762252044 108.82474992399625 H 0.0 **** 0.06
35749 H 154.5239897102115 33.946381830476696 110.4284203121781 H 0.0 **** 0.06
35750 H 152.90830338250248 33.73059427407719 109.71312243832756 H 0.0 **** 0.06
35751 C 83.38684758082907 157.2562103983855 18.314608674490877 C 0.0 **** -0.24
35752 H 82.52628229153662 157.64540482569052 17.770368892094552 H 0.0 **** 0.06
35753 H 83.80133239412076 156.40335330169572 17.77601420494021 H 0.0 **** 0.06
35754 H 83.07454666613428 156.94135719104915 19.31054314318311 H 0.0 **** 0.06
35755 H 84.14430782846841 158.03568460810044 18.400397969617465 H 0.0 **** 0.06
35756 C 75.6896776783413 34.51438092849389 147.7320012649118 C 0.0 **** -0.24
35757 H 74.81673481826407 34.57504575864894 147.08158415494484 H 0.0 **** 0.06
35758 H 75.72273747287353 33.533568308908514 148.20570316735024 H 0.0 **** 0.06
35759 H 75.6247470638135 35.28697312616825 148.49882275542495 H 0.0 **** 0.06
35760 H 76.5936952274847 34.66451626507995 147.14105157597828 H 0.0 **** 0.06
35761 C 75.68643775946455 0.871570955754045 151.45843154431145 C 0.0 **** -0.24
35762 H 76.48281082126432 0.352099621598736 150.92703312003832 H 0.0 **** 0.06
35763 H 75.01558156946808 0.14115222025600715 151.91212454421105 H 0.0 **** 0.06
35764 H 75.12831931478935 1.4936262541558776 150.75943166477498 H 0.0 **** 0.06
35765 H 76.11981151311225 1.4989900866689254 152.23848816768128 H 0.0 **** 0.06
35766 C 9.90065592058054 131.70248659766136 73.00328614144844 C 0.0 **** -0.24
35767 H 9.849902041307061 131.82893316772694 71.92240357269557 H 0.0 **** 0.06
35768 H 10.366567555638461 130.74330444377748 73.23494295739921 H 0.0 **** 0.06
35769 H 8.894292004125333 131.72764833675885 73.41962779129312 H 0.0 **** 0.06
35770 H 10.494369364944895 132.50846305242226 73.43576757156504 H 0.0 **** 0.06
35771 C 96.04441373619953 84.65145389155435 133.3582600064653 C 0.0 **** -0.24
35772 H 96.71347513101631 84.76174738938317 132.50458321494204 H 0.0 **** 0.06
35773 H 95.3677496500213 85.5044340031505 133.40241290421494 H 0.0 **** 0.06
35774 H 96.6312622701335 84.60447878433462 134.27541810821805 H 0.0 **** 0.06
35775 H 95.46631970347622 83.7330660297581 133.25007073844392 H 0.0 **** 0.06
35776 C 120.36205452279046 117.91446946691491 120.89211007817153 C 0.0 **** -0.24
35777 H 119.85550869569573 117.76096793247291 119.93857900986086 H 0.0 **** 0.06
35778 H 120.30259396559995 118.96699130677882 121.16968544310359 H 0.0 **** 0.06
35779 H 121.40794500504603 117.6212611040774 120.7982813624802 H 0.0 **** 0.06
35780 H 119.88193059080038 117.30896361211398 121.66053477290475 H 0.0 **** 0.06
35781 C 68.94295022125395 162.47076692612387 121.32952294612394 C 0.0 **** -0.24
35782 H 68.71193303554675 163.53418199067565 121.2713739891212 H 0.0 **** 0.06
35783 H 68.04065627087269 161.89222891138417 121.12548294989367 H 0.0 **** 0.06
35784 H 69.30971713035024 162.23204040442096 122.32790941619385 H 0.0 **** 0.06
35785 H 69.70783898503471 162.22425232461964 120.59296908302397 H 0.0 **** 0.06
35786 C 28.440526559212543 23.831684968238648 74.04665091138469 C 0.0 **** -0.24
35787 H 29.34241777167111 24.435213192908634 74.14678465249503 H 0.0 **** 0.06
35788 H 27.85876701848605 23.89308186157001 74.96656184439041 H 0.0 **** 0.06
35789 H 28.717201526609102 22.79321459743477 73.86028526121169 H 0.0 **** 0.06
35790 H 27.84481525915868 24.20347686085529 73.21382400907044 H 0.0 **** 0.06
35791 C 143.7976114290605 142.83552410848907 133.43876977124455 C 0.0 **** -0.24
35792 H 143.5854221223876 141.77763231131277 133.28736809121824 H 0.0 **** 0.06
35793 H 144.3212711029324 142.96963392740452 134.38541910748972 H 0.0 **** 0.06
35794 H 142.86153547747995 143.3944453205615 133.45851249652054 H 0.0 **** 0.06
35795 H 144.4210242682947 143.20070929715578 132.62191598964 H 0.0 **** 0.06
35796 C 106.63708632021573 146.3106899565758 111.81769769338331 C 0.0 **** -0.24
35797 H 106.86659067184897 146.56038414102812 112.85287563837244 H 0.0 **** 0.06
35798 H 106.7419530920767 145.235309710158 111.67140290877023 H 0.0 **** 0.06
35799 H 107.32568733447931 146.8363938908766 111.15549840242679 H 0.0 **** 0.06
35800 H 105.613711932363 146.6106326831512 111.5900991258741 H 0.0 **** 0.06
35801 C 125.60719311239615 54.17263597048695 134.276017565137 C 0.0 **** -0.24
35802 H 124.892045664899 54.4249467909456 133.4937233728399 H 0.0 **** 0.06
35803 H 126.0919360411772 55.08186101262099 134.6319163970148 H 0.0 **** 0.06
35804 H 126.35836438340843 53.4923479457577 133.87474611098457 H 0.0 **** 0.06
35805 H 125.08486761634148 53.69097232637202 135.1030538929153 H 0.0 **** 0.06
35806 C 147.59598528356696 88.46461939579227 95.55361998365986 C 0.0 **** -0.24
35807 H 147.14541553618707 87.9547930798846 94.70161651611635 H 0.0 **** 0.06
35808 H 148.01772621968325 87.72660061868739 96.236799871137 H 0.0 **** 0.06
35809 H 146.83457787638463 89.04596167925436 96.0724588114164 H 0.0 **** 0.06
35810 H 148.38584362912724 89.12899297211007 95.20245418870718 H 0.0 **** 0.06
35811 C 26.25536133463821 94.01327244905144 51.88680605485938 C 0.0 **** -0.24
35812 H 27.151958372629643 94.63355930573377 51.84767952558984 H 0.0 **** 0.06
35813 H 25.78778290363025 94.1139160393471 52.86645810829654 H 0.0 **** 0.06
35814 H 26.527562451302956 92.97127065616269 51.71834337117106 H 0.0 **** 0.06
35815 H 25.557058881187025 94.33576893052633 51.11542060289686 H 0.0 **** 0.06
35816 C 26.425250791239364 66.85667262415433 118.47254533719024 C 0.0 **** -0.24
35817 H 26.28492481207661 67.49414969247607 117.59941162877973 H 0.0 **** 0.06
35818 H 27.294172424271153 67.19963240265133 119.03490435577439 H 0.0 **** 0.06
35819 H 26.585391579558575 65.8283106357137 118.14854779717976 H 0.0 **** 0.06
35820 H 25.539311123848307 66.90582779985402 119.1045488886488 H 0.0 **** 0.06
35821 C 70.58929906000954 41.12762218319298 64.70920181742176 C 0.0 **** -0.24
35822 H 71.01290198430749 40.893665845300575 63.73249159864115 H 0.0 **** 0.06
35823 H 69.93145144294267 41.9934057578989 64.62258067057628 H 0.0 **** 0.06
35824 H 71.3939037010949 41.35165559058906 65.40952906798425 H 0.0 **** 0.06
35825 H 70.0190336367372 40.27273800601628 65.07201200639271 H 0.0 **** 0.06
35826 C 20.740600336866493 12.8669144235038 9.720126554928527 C 0.0 **** -0.24
35827 H 20.807807090484687 12.238301315347087 8.831836800752853 H 0.0 **** 0.06
35828 H 21.74420989854022 13.090186658654318 10.083077287363722 H 0.0 **** 0.06
35829 H 20.181497923900366 12.343320128052852 10.494409646519557 H 0.0 **** 0.06
35830 H 20.22995541235693 13.79620130242148 9.46840150363218 H 0.0 **** 0.06
35831 C 44.024731362882676 128.09186268646047 15.281363849618117 C 0.0 **** -0.24
35832 H 43.511216354067585 127.30534194298352 14.73038812887188 H 0.0 **** 0.06
35833 H 43.99577602650743 129.0177289330213 14.704906386901541 H 0.0 **** 0.06
35834 H 45.06103471995357 127.80026699690455 15.449884291165404 H 0.0 **** 0.06
35835 H 43.530232712700354 128.2459969126417 16.241280320045746 H 0.0 **** 0.06
35836 C 99.67026219528975 64.44015359403437 40.89731848597728 C 0.0 **** -0.24
35837 H 100.68915576021291 64.70496889614364 40.613384270345676 H 0.0 **** 0.06
35838 H 99.49870414012148 63.383691201112995 40.690499945957015 H 0.0 **** 0.06
35839 H 98.96611572823414 65.04320156801498 40.32508014837629 H 0.0 **** 0.06
35840 H 99.52959767119924 64.62994652558058 41.96140588385987 H 0.0 **** 0.06
35841 C 87.94378846731084 113.89791747804168 88.17787447281901 C 0.0 **** -0.24
35842 H 87.70364137014903 114.02066094316456 89.23375953055381 H 0.0 **** 0.06
35843 H 87.04728997112161 114.06235351549827 87.57942304146768 H 0.0 **** 0.06
35844 H 88.31654770809907 112.88819504895605 88.00509707927651 H 0.0 **** 0.06
35845 H 88.7089007622106 114.61978944382736 87.89343489052082 H 0.0 **** 0.06
35846 C 46.61953756398914 47.25367993108668 108.88264276301223 C 0.0 **** -0.24
35847 H 47.42418838666602 46.63880726550131 109.2869477734929 H 0.0 **** 0.06
35848 H 46.174989535694806 47.842722222317434 109.6842355877661 H 0.0 **** 0.06
35849 H 45.85930572155431 46.61086359603402 108.43824814374389 H 0.0 **** 0.06
35850 H 47.02157511175449 47.921004387510536 108.12035886979314 H 0.0 **** 0.06
35851 C 13.522297744673125 40.072556751879574 71.87116710770046 C 0.0 **** -0.24
35852 H 13.15392042078767 40.343923035137436 72.86021732238079 H 0.0 **** 0.06
35853 H 13.906408730305856 39.05207895759304 71.89416098764235 H 0.0 **** 0.06
35854 H 14.320247603523683 40.75607488839614 71.57994922597797 H 0.0 **** 0.06
35855 H 12.706589958054451 40.136814948095434 71.14999473432742 H 0.0 **** 0.06
35856 C 151.59391857573348 133.7153417652372 134.9743663832943 C 0.0 **** -0.24
35857 H 152.26672040361922 134.46179872131412 135.39704661893526 H 0.0 **** 0.06
35858 H 151.31943421459016 134.00671896796345 133.95979821798667 H 0.0 **** 0.06
35859 H 150.6960016377039 133.64604083462208 135.5876227573425 H 0.0 **** 0.06
35860 H 152.0946378046657 132.74710104646513 134.95108463497493 H 0.0 **** 0.06
35861 C 11.732294461150445 16.9814995466877 7.261470841086918 C 0.0 **** -0.24
35862 H 11.837498325939123 16.28548219982747 6.429129648079595 H 0.0 **** 0.06
35863 H 12.549543046745498 16.830188972138274 7.966840759897451 H 0.0 **** 0.06
35864 H 10.781073119616394 16.805476818225856 7.764383192531568 H 0.0 **** 0.06
35865 H 11.760352605592061 18.00414751519085 6.885496474343427 H 0.0 **** 0.06
35866 C 5.082837548700809 25.726315363111468 123.2903742526521 C 0.0 **** -0.24
35867 H 4.34608339819772 26.529542161555653 123.25655238517078 H 0.0 **** 0.06
35868 H 4.682386342360644 24.84512234651637 122.78928389126366 H 0.0 **** 0.06
35869 H 5.3066785382163175 25.48416634444974 124.32980676707189 H 0.0 **** 0.06
35870 H 5.994682824710026 26.04854411431564 122.78764999613406 H 0.0 **** 0.06
35871 C 24.966260668011785 114.32832406072478 111.81898530216958 C 0.0 **** -0.24
35872 H 24.53788297324715 115.3309092576284 111.82421482276749 H 0.0 **** 0.06
35873 H 24.932879623862874 113.92442582948186 110.80603276253211 H 0.0 **** 0.06
35874 H 24.391938621660785 113.684288566791 112.48630110517229 H 0.0 **** 0.06
35875 H 26.000254062153942 114.37299037055217 112.15897117844614 H 0.0 **** 0.06
35876 C 70.37085290195427 158.07370513880835 113.46774555148394 C 0.0 **** -0.24
35877 H 69.8230293748594 157.14215994015004 113.32630377686269 H 0.0 **** 0.06
35878 H 71.32295012638951 158.01923566868575 112.93908608344665 H 0.0 **** 0.06
35879 H 70.55270037746976 158.2297627330096 114.5304789801003 H 0.0 **** 0.06
35880 H 69.78270520735848 158.90322380963894 113.07380906768077 H 0.0 **** 0.06
35881 C 122.30197546837996 9.281618918201644 137.59078716743238 C 0.0 **** -0.24
35882 H 123.28906279485363 8.828946518681192 137.50164044941408 H 0.0 **** 0.06
35883 H 121.7304636834341 8.758020972701814 138.35753702537787 H 0.0 **** 0.06
35884 H 121.78105479441479 9.208480351612025 136.63577236267824 H 0.0 **** 0.06
35885 H 122.4069888143548 10.329654050377968 137.86814679216354 H 0.0 **** 0.06
35886 C 156.34381197929378 161.96214301388042 29.857469038150704 C 0.0 **** -0.24
35887 H 156.38759905114938 161.51252375095947 28.865316793342906 H 0.0 **** 0.06
35888 H 156.58712106083107 163.02271084532987 29.786486998148995 H 0.0 **** 0.06
35889 H 157.06184661866715 161.46688721989273 30.512366633660406 H 0.0 **** 0.06
35890 H 155.3401011064688 161.84619980468997 30.264745935605326 H 0.0 **** 0.06
35891 C 56.91258151935635 110.22000748819784 17.810704479047672 C 0.0 **** -0.24
35892 H 56.974644832045854 109.42600530834764 17.067293082308083 H 0.0 **** 0.06
35893 H 57.717326872935786 110.10186199221144 18.536223196250347 H 0.0 **** 0.06
35894 H 55.95152572071794 110.16398975741569 18.322356348272336 H 0.0 **** 0.06
35895 H 57.00647895360618 111.18738227770712 17.318064528463537 H 0.0 **** 0.06
35896 C 137.4338821029885 150.84149163448598 125.52721929454322 C 0.0 **** -0.24
35897 H 138.1137618449734 151.5666530030681 125.07851179287559 H 0.0 **** 0.06
35898 H 137.62974008149217 149.8537664339417 125.10849806008258 H 0.0 **** 0.06
35899 H 136.4039404092012 151.12932892158312 125.31560249745667 H 0.0 **** 0.06
35900 H 137.5909514901703 150.81650771521086 126.60542468260053 H 0.0 **** 0.06
35901 C 110.933785447574 94.03055021626616 156.56714398222329 C 0.0 **** -0.24
35902 H 110.73598001918288 93.93161449573415 155.49990006152956 H 0.0 **** 0.06
35903 H 111.66549249814705 94.82209423773469 156.7287877542361 H 0.0 **** 0.06
35904 H 111.32424179653702 93.08866223602962 156.95293762981225 H 0.0 **** 0.06
35905 H 110.00733012093735 94.28035638397338 157.08487101667214 H 0.0 **** 0.06
35906 C 39.778630579310345 65.558615117719 6.227007953801973 C 0.0 **** -0.24
35907 H 39.56950103429784 65.95482566515 7.220760889025087 H 0.0 **** 0.06
35908 H 40.55481795932691 66.15954274692128 5.7522027103620985 H 0.0 **** 0.06
35909 H 38.87178568495774 65.59397164461943 5.622876242741654 H 0.0 **** 0.06
35910 H 40.118701776713664 64.52690011470342 6.311633974111487 H 0.0 **** 0.06
35911 C 85.37059106834437 147.67714466165071 27.651607338134994 C 0.0 **** -0.24
35912 H 84.9828957893908 147.01026945456184 28.42244241673251 H 0.0 **** 0.06
35913 H 85.64753786072643 148.6299410291761 28.101536640983625 H 0.0 **** 0.06
35914 H 84.60337773184659 147.8410267918811 26.894481709174073 H 0.0 **** 0.06
35915 H 86.24679246303572 147.22473632656116 27.18830760966415 H 0.0 **** 0.06
35916 C 33.27615328886168 76.1980679841644 105.74383338689063 C 0.0 **** -0.24
35917 H 32.78120997404099 75.7083545765087 104.90621730677015 H 0.0 **** 0.06
35918 H 33.344296609432234 77.26879635538509 105.55052505815323 H 0.0 **** 0.06
35919 H 34.277485667679315 75.78576970098315 105.86580236468015 H 0.0 **** 0.06
35920 H 32.701538334319764 76.02901858633138 106.65499848585227 H 0.0 **** 0.06
35921 C 97.26413579589001 137.51556457586935 132.64005960496962 C 0.0 **** -0.24
35922 H 97.68891390363228 138.2721679837323 133.29983055062792 H 0.0 **** 0.06
35923 H 97.35240001591262 136.53502655110762 133.10717891045724 H 0.0 **** 0.06
35924 H 97.80331967977304 137.5168980634212 131.69220737569196 H 0.0 **** 0.06
35925 H 96.2130216255996 137.73920931263996 132.4593862242833 H 0.0 **** 0.06
35926 C 3.5380446691008274 21.27525562448784 92.08145177297169 C 0.0 **** -0.24
35927 H 2.6227356128421775 21.74824656742294 92.43559259223474 H 0.0 **** 0.06
35928 H 3.3378631097085645 20.229998113689817 91.84367463435203 H 0.0 **** 0.06
35929 H 4.30032778686035 21.331557792461666 92.85900202352084 H 0.0 **** 0.06
35930 H 3.8908862345075477 21.790082567456523 91.18879178584146 H 0.0 **** 0.06
35931 C 59.221539810032795 8.161600316346437 65.93817893266493 C 0.0 **** -0.24
35932 H 58.174857928105965 8.047285322559503 66.22009022301519 H 0.0 **** 0.06
35933 H 59.697387807920265 7.181898204929865 65.90058507171622 H 0.0 **** 0.06
35934 H 59.72977353291947 8.784865503657784 66.67494137043639 H 0.0 **** 0.06
35935 H 59.28455768858535 8.635075749173865 64.95828576266999 H 0.0 **** 0.06
35936 C 149.31453415449283 90.24218321106133 71.19064535553777 C 0.0 **** -0.24
35937 H 148.44122252035112 90.57610760553172 70.63017488307342 H 0.0 **** 0.06
35938 H 150.1545909853646 90.1088081093728 70.50930590477795 H 0.0 **** 0.06
35939 H 149.08992275113812 89.29560453822208 71.6817862485618 H 0.0 **** 0.06
35940 H 149.57071616725585 90.98953340668457 71.94196175593929 H 0.0 **** 0.06
35941 C 134.55734986233745 140.07060428939315 10.565137169745242 C 0.0 **** -0.24
35942 H 134.40488141867536 140.86140680775708 11.29823371487717 H 0.0 **** 0.06
35943 H 134.4291952939902 140.47631130584978 9.561440457995928 H 0.0 **** 0.06
35944 H 133.83023085099856 139.27606579060532 10.731616481765514 H 0.0 **** 0.06
35945 H 135.56580724703963 139.6692825295859 10.668999705360449 H 0.0 **** 0.06
35946 C 130.68837768250256 147.51211954829256 4.477531115005547 C 0.0 **** -0.24
35947 H 129.78400690728733 147.50717528408222 3.8690198875388475 H 0.0 **** 0.06
35948 H 131.1541061769111 146.52728614329226 4.4418521448059565 H 0.0 **** 0.06
35949 H 130.42965604261647 147.7556059005184 5.507982648923324 H 0.0 **** 0.06
35950 H 131.38171557270508 148.25724170339498 4.0900761655818485 H 0.0 **** 0.06
35951 C 108.08578412332145 20.23588452931591 133.49904673780281 C 0.0 **** -0.24
35952 H 108.70652187109422 19.977417503527022 134.3567205042142 H 0.0 **** 0.06
35953 H 108.16916524347266 21.30533732745303 133.30009643627926 H 0.0 **** 0.06
35954 H 107.0468574700171 19.98599702169932 133.71375466209764 H 0.0 **** 0.06
35955 H 108.42178342326733 19.677351485337397 132.6256286515415 H 0.0 **** 0.06
35956 C 98.07163760472497 70.16555918067604 150.51380523485165 C 0.0 **** -0.24
35957 H 98.94815696647572 70.38134243055697 149.90388867041938 H 0.0 **** 0.06
35958 H 97.19474737219463 70.0778749665844 149.87139423614536 H 0.0 **** 0.06
35959 H 97.91828650245719 70.97405836280464 151.22931512242536 H 0.0 **** 0.06
35960 H 98.22436656212966 69.22988807945893 151.05101589249833 H 0.0 **** 0.06
35961 C 115.3469872784234 15.092339670001031 155.72727240595665 C 0.0 **** -0.24
35962 H 114.87716479879435 14.418485462586432 155.01058264643967 H 0.0 **** 0.06
35963 H 114.68328591638365 15.935230697094305 155.92157138415936 H 0.0 **** 0.06
35964 H 116.28892750056247 15.45599730917445 155.31949486214475 H 0.0 **** 0.06
35965 H 115.53589715959282 14.557270600857898 156.65854199021092 H 0.0 **** 0.06
35966 C 4.3589138950548545 113.2643498161676 32.38712208801911 C 0.0 **** -0.24
35967 H 4.645881577619946 113.98738284528511 33.15108718148008 H 0.0 **** 0.06
35968 H 4.826819979559559 112.30402882757599 32.60385314612154 H 0.0 **** 0.06
35969 H 4.688787595896542 113.61801230326174 31.410988899767347 H 0.0 **** 0.06
35970 H 3.274955928878569 113.14828218593706 32.38560589394763 H 0.0 **** 0.06
35971 C 68.70868398891173 3.5952349938758346 116.59895023681116 C 0.0 **** -0.24
35972 H 67.83670013467353 2.9570054333571605 116.74025851192951 H 0.0 **** 0.06
35973 H 68.40774784414012 4.5181221410879715 116.10297381455862 H 0.0 **** 0.06
35974 H 69.44412282114885 3.0754345673516283 115.98483778832275 H 0.0 **** 0.06
35975 H 69.14700934420566 3.829811989964206 117.56871430940822 H 0.0 **** 0.06
35976 C 32.410084654915266 82.87621740781316 106.29776986137949 C 0.0 **** -0.24
35977 H 31.98735075451725 82.49456083162963 105.36875094699249 H 0.0 **** 0.06
35978 H 32.356125604296665 83.96532767194654 106.30178721136247 H 0.0 **** 0.06
35979 H 33.45168977967995 82.56330082762648 106.3783482176593 H 0.0 **** 0.06
35980 H 31.845473006286767 82.48076588025828 107.14246427289098 H 0.0 **** 0.06
35981 C 50.891165652587745 44.23281793425282 66.4105970917991 C 0.0 **** -0.24
35982 H 51.061262125084 45.30883710296004 66.40972890778929 H 0.0 **** 0.06
35983 H 49.846152778386696 44.02981737972871 66.17500052224705 H 0.0 **** 0.06
35984 H 51.127006506395205 43.82883154054316 67.39486734256508 H 0.0 **** 0.06
35985 H 51.53024120048504 43.76378571377914 65.66279159459486 H 0.0 **** 0.06
35986 C 93.63875688944357 62.82223219304224 48.36849062095001 C 0.0 **** -0.24
35987 H 93.38280328603746 63.84345533119979 48.64757458039273 H 0.0 **** 0.06
35988 H 92.86763270129195 62.142430044321685 48.73205410411637 H 0.0 **** 0.06
35989 H 94.59789127705972 62.55373987016361 48.81078231347237 H 0.0 **** 0.06
35990 H 93.70563166009514 62.74845154164379 47.283187885648445 H 0.0 **** 0.06
35991 C 99.59490488670724 140.24909562657643 107.59342720546115 C 0.0 **** -0.24
35992 H 99.87915975222825 139.26144708681474 107.95391899729646 H 0.0 **** 0.06
35993 H 100.48763735515058 140.8621569988287 107.46972857980134 H 0.0 **** 0.06
35994 H 98.92719999495887 140.72119676148722 108.31388854512511 H 0.0 **** 0.06
35995 H 99.0847654741035 140.15191176078707 106.6347041203008 H 0.0 **** 0.06
35996 C 39.02175838459192 109.01410616504063 67.98763185463804 C 0.0 **** -0.24
35997 H 37.96345760157274 109.2640030339526 67.91163272846484 H 0.0 **** 0.06
35998 H 39.57549750121615 109.53940312419735 67.20872108539136 H 0.0 **** 0.06
35999 H 39.15021965290322 107.93934464187993 67.86457420061758 H 0.0 **** 0.06
36000 H 39.39527121471454 109.31502657892617 68.96628854523514 H 0.0 **** 0.06
36001 C 58.93158568148026 92.42717527779533 86.84117305881801 C 0.0 **** -0.24
36002 H 60.018403638274975 92.43377070782181 86.93610539884327 H 0.0 **** 0.06
36003 H 58.500411201318315 93.12436430065577 87.55939996020085 H 0.0 **** 0.06
36004 H 58.55675864980779 91.42357705756253 87.03750214142683 H 0.0 **** 0.06
36005 H 58.65512528087551 92.72786028731977 85.83055936889617 H 0.0 **** 0.06
36006 C 70.35928520369362 136.2492857182303 146.0145022827011 C 0.0 **** -0.24
36007 H 70.65832274143574 135.7577606173265 146.93993000112718 H 0.0 **** 0.06
36008 H 69.32211132683129 136.00055142106373 145.79020906267326 H 0.0 **** 0.06
36009 H 70.99901305302215 135.90852936532033 145.19981751415634 H 0.0 **** 0.06
36010 H 70.4587737353053 137.3283725610351 146.12771643706813 H 0.0 **** 0.06
36011 C 126.0137907132515 47.12879338093563 101.4117157133825 C 0.0 **** -0.24
36012 H 125.31925393857264 47.92873870159514 101.67072931747043 H 0.0 **** 0.06
36013 H 127.02231055094623 47.53462871078585 101.33828376591399 H 0.0 **** 0.06
36014 H 125.72545211654483 46.69359186269759 100.45556023023039 H 0.0 **** 0.06
36015 H 125.98668113724707 46.36054447281822 102.18482408750637 H 0.0 **** 0.06
36016 C 66.09260188209475 44.792388934798964 22.38276057139371 C 0.0 **** -0.24
36017 H 66.00342556720659 45.711315125315906 21.804100852149638 H 0.0 **** 0.06
36018 H 67.1458654333099 44.58710926001973 22.576231571397997 H 0.0 **** 0.06
36019 H 65.65821215957828 43.96578229248382 21.82057476451355 H 0.0 **** 0.06
36020 H 65.56419770670033 44.906558016546114 23.329204600948316 H 0.0 **** 0.06
36021 C 111.65315543965212 159.21942702211172 66.36564886609231 C 0.0 **** -0.24
36022 H 112.1673909117587 160.0514473951155 65.88533249863558 H 0.0 **** 0.06
36023 H 110.90360413055242 158.81353219928093 65.68574144124655 H 0.0 **** 0.06
36024 H 111.16761792457751 159.5698746522304 67.27645874575686 H 0.0 **** 0.06
36025 H 112.375659060859 158.44255416322648 66.61615223971155 H 0.0 **** 0.06
36026 C 134.33379259798275 25.781363017618332 123.08670799570714 C 0.0 **** -0.24
36027 H 134.2099326199748 26.79194538064695 123.47517914258685 H 0.0 **** 0.06
36028 H 133.44770604666888 25.499955972355565 122.51752387731239 H 0.0 **** 0.06
36029 H 134.46933451419352 25.087262003954095 123.91589314718127 H 0.0 **** 0.06
36030 H 135.2087448453541 25.746990124161982 122.4371366432485 H 0.0 **** 0.06
36031 C 152.66357667375703 19.071759545419184 128.31427324098098 C 0.0 **** -0.24
36032 H 153.3762063797707 19.896011452220364 128.27466802369958 H 0.0 **** 0.06
36033 H 153.19497307878157 18.143189819964164 128.52284213196924 H 0.0 **** 0.06
36034 H 152.1504398292136 18.989425199251514 127.35591813815148 H 0.0 **** 0.06
36035 H 151.93494905630587 19.25960834505571 129.10209837500273 H 0.0 **** 0.06
36036 C 44.0379179882469 41.621356146038096 45.813578941684796 C 0.0 **** -0.24
36037 H 43.04806359700186 41.249935718970065 45.54900003799628 H 0.0 **** 0.06
36038 H 43.96498844421751 42.664415286231346 46.12279535753265 H 0.0 **** 0.06
36039 H 44.698209312071526 41.54282512397788 44.949363037012006 H 0.0 **** 0.06
36040 H 44.44101782077303 41.02633958229893 46.634151134267626 H 0.0 **** 0.06
36041 C 94.88040236470442 144.55841892495891 16.730071829609727 C 0.0 **** -0.24
36042 H 95.75616353699382 143.90929323912002 16.710169880388264 H 0.0 **** 0.06
36043 H 95.1969984573276 145.5891937886147 16.886490892308927 H 0.0 **** 0.06
36044 H 94.22088611139043 144.2531222404595 17.5423606318802 H 0.0 **** 0.06
36045 H 94.3496455132875 144.4801818763263 15.781589903121983 H 0.0 **** 0.06
36046 C 38.039063531356845 116.78119493588034 37.239398304120755 C 0.0 **** -0.24
36047 H 37.15382169798727 116.48637652890164 37.80248874567843 H 0.0 **** 0.06
36048 H 37.933763152710156 116.46204604336006 36.202431248292356 H 0.0 **** 0.06
36049 H 38.9204190931722 116.31180787070366 37.677061450238966 H 0.0 **** 0.06
36050 H 38.148156592673274 117.8649548434804 37.27729310109203 H 0.0 **** 0.06
36051 C 51.16908937406333 98.25039636625914 23.499739354267717 C 0.0 **** -0.24
36052 H 51.22497652583479 97.16688286359175 23.601015955574553 H 0.0 **** 0.06
36053 H 51.840350869483586 98.71790523480044 24.22093582824789 H 0.0 **** 0.06
36054 H 50.14754634017726 98.5807466034849 23.687503572375704 H 0.0 **** 0.06
36055 H 51.46396571182265 98.53709324468215 22.490327297691124 H 0.0 **** 0.06
36056 C 28.359700197702864 29.50789808290108 107.72484273151747 C 0.0 **** -0.24
36057 H 28.969398872043712 30.209553504046994 107.15581193731913 H 0.0 **** 0.06
36058 H 27.340400819062097 29.514957359337643 107.33698084870241 H 0.0 **** 0.06
36059 H 28.350974661336693 29.802710311163025 108.77455673769362 H 0.0 **** 0.06
36060 H 28.777070694399754 28.50611694826 107.63221860088399 H 0.0 **** 0.06
36061 C 1.4856422430514158 85.39598527906354 117.59324978079198 C 0.0 **** -0.24
36062 H 1.992756418725719 86.35654442934431 117.6705939382901 H 0.0 **** 0.06
36063 H 2.2107005079449777 84.62108380174358 117.34443244105645 H 0.0 **** 0.06
36064 H 0.7265947114635196 85.44794768609414 116.81254265475826 H 0.0 **** 0.06
36065 H 1.0103067979773641 85.15807738213648 118.54525446876363 H 0.0 **** 0.06
36066 C 47.768756221122544 104.35610981943887 69.94374468235748 C 0.0 **** -0.24
36067 H 47.33611930095532 105.32750637113287 69.70479723222832 H 0.0 **** 0.06
36068 H 47.87047374986108 104.26016303500413 71.02509459703816 H 0.0 **** 0.06
36069 H 48.74988604400298 104.2702710091632 69.47703726213746 H 0.0 **** 0.06
36070 H 47.117189332223745 103.56620234942301 69.56778100523576 H 0.0 **** 0.06
36071 C 118.80515989032958 97.43489137270365 105.24502125000154 C 0.0 **** -0.24
36072 H 117.88310901381931 96.8745378546729 105.09169819504928 H 0.0 **** 0.06
36073 H 119.58216637335403 96.76376996586382 105.60948497187943 H 0.0 **** 0.06
36074 H 118.6323835766099 98.22421139499815 105.97791971605659 H 0.0 **** 0.06
36075 H 119.1212538521232 97.87846026353768 104.30084377545185 H 0.0 **** 0.06
36076 C 142.4456042269681 50.471801662306646 32.33114144188493 C 0.0 **** -0.24
36077 H 142.13734832509988 50.944466183941145 31.398884295064633 H 0.0 **** 0.06
36078 H 142.11795152730974 51.0819027806142 33.17317303552228 H 0.0 **** 0.06
36079 H 143.53129619082011 50.3789272671887 32.34900619150692 H 0.0 **** 0.06
36080 H 141.994414926202 49.48176692196459 32.401769358537315 H 0.0 **** 0.06
36081 C 12.372938652629273 153.33430156163732 155.98367093087145 C 0.0 **** -0.24
36082 H 11.551206431336652 153.5467358338532 155.30015964638693 H 0.0 **** 0.06
36083 H 12.85793925796861 152.40281345894104 155.6895855319074 H 0.0 **** 0.06
36084 H 11.985884534385889 153.23721280968982 156.998422016359 H 0.0 **** 0.06
36085 H 13.096337459817903 154.1484855794938 155.9463963912895 H 0.0 **** 0.06
36086 C 132.52477836905928 71.04913101733938 105.6974148163201 C 0.0 **** -0.24
36087 H 132.99654853114947 70.9106971813795 104.72427255421991 H 0.0 **** 0.06
36088 H 133.04108144594787 71.84123399793668 106.24043864639663 H 0.0 **** 0.06
36089 H 132.58467039525783 70.12013443324011 106.26547747527323 H 0.0 **** 0.06
36090 H 131.48014086133787 71.32356160389652 105.55912123664211 H 0.0 **** 0.06
36091 C 88.33170534790167 139.53553544905373 20.80880902166217 C 0.0 **** -0.24
36092 H 88.01952367621851 139.5831380589923 21.85149853238346 H 0.0 **** 0.06
36093 H 89.34267741370977 139.9323601812855 20.71371178559042 H 0.0 **** 0.06
36094 H 87.64998599758655 140.12771813840902 20.198133778103283 H 0.0 **** 0.06
36095 H 88.31428108051222 138.49886321994416 20.47095850530485 H 0.0 **** 0.06
36096 C 26.881268437928213 54.637230853049914 71.92824151815307 C 0.0 **** -0.24
36097 H 26.22398030831974 54.89913418069827 72.75760984931685 H 0.0 **** 0.06
36098 H 26.973342735015052 55.48921166877561 71.25464307040687 H 0.0 **** 0.06
36099 H 26.462181550540834 53.78890001934111 71.38722966060504 H 0.0 **** 0.06
36100 H 27.86479216760594 54.370952213556464 72.31569038238081 H 0.0 **** 0.06
36101 C 13.244277911314825 69.17241515640816 108.07991859247804 C 0.0 **** -0.24
36102 H 13.022676022666182 68.15414268146696 107.76054636123135 H 0.0 **** 0.06
36103 H 12.332311529092792 69.76837027576975 108.04841206403461 H 0.0 **** 0.06
36104 H 13.987191929496376 69.6088756448283 107.41168294140141 H 0.0 **** 0.06
36105 H 13.63476541490774 69.15688357778106 109.09702188561633 H 0.0 **** 0.06
36106 C 139.38833571429987 75.6320529533744 142.8955345054796 C 0.0 **** -0.24
36107 H 138.8910949504721 74.89936763959406 142.25993895142904 H 0.0 **** 0.06
36108 H 138.6616449880696 76.0697006701138 143.58018545902354 H 0.0 **** 0.06
36109 H 139.82230509365223 76.41661632930874 142.27589934328822 H 0.0 **** 0.06
36110 H 140.17644541590894 75.14222828102896 143.4673305716522 H 0.0 **** 0.06
36111 C 141.7059394607373 158.72688182034153 12.775215222715218 C 0.0 **** -0.24
36112 H 141.65412229319742 159.53411246867117 13.505894030633556 H 0.0 **** 0.06
36113 H 141.28423186179484 159.06602588793595 11.82899492017799 H 0.0 **** 0.06
36114 H 141.1392370805232 157.87041687074404 13.140688974011255 H 0.0 **** 0.06
36115 H 142.747045892337 158.43761271902895 12.627236567148572 H 0.0 **** 0.06
36116 C 94.88899116573815 35.25717712245779 104.02320501685767 C 0.0 **** -0.24
36117 H 95.34533395460275 34.61079349543701 104.77271373146925 H 0.0 **** 0.06
36118 H 93.81389196288175 35.07643043116468 103.99257441019762 H 0.0 **** 0.06
36119 H 95.32198971525358 35.042468223925766 103.04602887524277 H 0.0 **** 0.06
36120 H 95.07507420463429 36.29985871754343 104.28193280705432 H 0.0 **** 0.06
36121 C 116.60220038757546 54.94853344883393 24.05088756136098 C 0.0 **** -0.24
36122 H 115.74319461074057 55.27337794385578 23.4640366633694 H 0.0 **** 0.06
36123 H 116.78005136506127 53.88703058416846 23.87768951426196 H 0.0 **** 0.06
36124 H 116.40304513429814 55.11577382888066 25.110067309223666 H 0.0 **** 0.06
36125 H 117.48121669350905 55.51882928237316 23.752502211503554 H 0.0 **** 0.06
36126 C 31.75786735086544 32.56554698261658 99.18898631616543 C 0.0 **** -0.24
36127 H 32.26407274028949 31.6453284262205 98.89916096154664 H 0.0 **** 0.06
36128 H 32.14345247591842 32.90599394300921 100.1496911705577 H 0.0 **** 0.06
36129 H 30.686704000657812 32.37988375115982 99.27181213500583 H 0.0 **** 0.06
36130 H 31.93623689409077 33.331226280268055 98.43329761927814 H 0.0 **** 0.06
36131 C 121.84138568361965 45.71062992803496 158.318083992975 C 0.0 **** -0.24
36132 H 121.2787281278757 46.5524924984326 157.91694101723127 H 0.0 **** 0.06
36133 H 121.6764466896189 45.64177515963445 159.39384978472756 H 0.0 **** 0.06
36134 H 122.9035115159908 45.85665603531251 158.12158731002384 H 0.0 **** 0.06
36135 H 121.5076404596254 44.789519628894226 157.83968581564548 H 0.0 **** 0.06
36136 C 38.27907661338199 128.3011871558431 21.282779873078034 C 0.0 **** -0.24
36137 H 38.509486060141 129.24904324566427 20.79589981606614 H 0.0 **** 0.06
36138 H 37.8212091519556 128.49380832563673 22.253585910374866 H 0.0 **** 0.06
36139 H 39.19849495671713 127.7318808176793 21.420555302023672 H 0.0 **** 0.06
36140 H 37.58839393142958 127.73185136656022 20.661086190203243 H 0.0 **** 0.06
36141 C 150.2751513960342 130.26393888598932 80.48057229456879 C 0.0 **** -0.24
36142 H 150.37253423490657 129.57069368560326 81.31591086276708 H 0.0 **** 0.06
36143 H 150.37794029575124 129.71801249006796 79.5422633390081 H 0.0 **** 0.06
36144 H 151.0544095900427 131.02264664200027 80.5464284807486 H 0.0 **** 0.06
36145 H 149.29733462299026 130.74286768777085 80.5174827215847 H 0.0 **** 0.06
36146 C 96.77911326743887 70.16370714950143 140.89729727847578 C 0.0 **** -0.24
36147 H 97.13008872154234 69.30491034202052 141.469630341803 H 0.0 **** 0.06
36148 H 97.57199010532872 70.91022056882119 140.84161138412526 H 0.0 **** 0.06
36149 H 95.90679397473161 70.59527612752764 141.38807230147017 H 0.0 **** 0.06
36150 H 96.50911703014447 69.84419887031942 139.89113559940398 H 0.0 **** 0.06
36151 C 27.5403245370234 144.6730095471642 110.94425014809923 C 0.0 **** -0.24
36152 H 28.052584149794974 145.46810656233123 110.40256326544659 H 0.0 **** 0.06
36153 H 28.050749076600688 143.72571747733943 110.7655061066693 H 0.0 **** 0.06
36154 H 26.509438059185207 144.6015157075362 110.59605252300642 H 0.0 **** 0.06
36155 H 27.549179112018024 144.8950803582535 112.01115923269728 H 0.0 **** 0.06
36156 C 76.37710272940069 19.596939635429237 39.36274529914117 C 0.0 **** -0.24
36157 H 77.27314174357747 20.211536629588068 39.44604271328613 H 0.0 **** 0.06
36158 H 76.6031589099149 18.580634147292812 39.685482986775455 H 0.0 **** 0.06
36159 H 76.04227803921555 19.58291115483732 38.32482500876759 H 0.0 **** 0.06
36160 H 75.59105046669268 20.01281524229529 39.99276050941768 H 0.0 **** 0.06
36161 C 138.8260358437454 25.31596395706987 32.04876929612681 C 0.0 **** -0.24
36162 H 138.39596799358586 26.311803747172803 31.94068312805544 H 0.0 **** 0.06
36163 H 139.53107237219464 25.13435775705625 31.237136645979895 H 0.0 **** 0.06
36164 H 138.0308755303784 24.570992468712006 32.013210523572994 H 0.0 **** 0.06
36165 H 139.3456464425917 25.24588903994163 33.00400495589625 H 0.0 **** 0.06
36166 C 57.07116593936978 123.3120055844011 97.67828994826488 C 0.0 **** -0.24
36167 H 58.06803934978285 122.88902862537702 97.80430092006551 H 0.0 **** 0.06
36168 H 57.127266221394365 124.1862624877208 97.02980442155231 H 0.0 **** 0.06
36169 H 56.67666609375813 123.6044472806135 98.65126557691067 H 0.0 **** 0.06
36170 H 56.414921105076886 122.56646653241285 97.22971990555078 H 0.0 **** 0.06
36171 C 71.92203527379708 133.77520392994055 21.305116097930892 C 0.0 **** -0.24
36172 H 70.91274418135987 133.93809887318827 21.68119260593994 H 0.0 **** 0.06
36173 H 72.53802619764609 133.34329565465845 22.095082766705985 H 0.0 **** 0.06
36174 H 72.35070540376246 134.72630802342297 20.9896216088228 H 0.0 **** 0.06
36175 H 71.88794209372983 133.09181255272387 20.45620399486603 H 0.0 **** 0.06
36176 C 128.9137458438777 16.80751595665774 80.06410644705326 C 0.0 **** -0.24
36177 H 128.4282319791236 17.588326941542846 79.47832802332262 H 0.0 **** 0.06
36178 H 129.14979331665776 17.190549360765317 81.05647373359173 H 0.0 **** 0.06
36179 H 129.83176865551164 16.49753602929715 79.56470838700712 H 0.0 **** 0.06
36180 H 128.24269349370232 15.952467887885348 80.1543917925682 H 0.0 **** 0.06
36181 C 27.278143713079828 9.879617415711834 156.4967457798419 C 0.0 **** -0.24
36182 H 26.368177352794135 9.45260957505053 156.07503096321653 H 0.0 **** 0.06
36183 H 27.630144579985824 10.687709124216383 155.85580192512904 H 0.0 **** 0.06
36184 H 28.044395836706826 9.107391931037398 156.5624978184412 H 0.0 **** 0.06
36185 H 27.068687094536642 10.26926681028607 157.49301639304983 H 0.0 **** 0.06
36186 C 103.54790859874888 138.32215684345644 106.42825421662229 C 0.0 **** -0.24
36187 H 103.12443234550682 137.9279818182173 105.50406603757733 H 0.0 **** 0.06
36188 H 104.60944655155802 138.0765381840426 106.475556910417 H 0.0 **** 0.06
36189 H 103.0342697880009 137.87964220632415 107.28117144240468 H 0.0 **** 0.06
36190 H 103.42422096063919 139.40491467175497 106.45071999786097 H 0.0 **** 0.06
36191 C 32.62500611692167 47.570659587325395 101.75829357544652 C 0.0 **** -0.24
36192 H 33.48880268142358 47.7309800051504 102.40430731155874 H 0.0 **** 0.06
36193 H 32.18706093248582 46.595429243292756 101.97273627213033 H 0.0 **** 0.06
36194 H 32.93917227989368 47.6076041746299 100.7154371324435 H 0.0 **** 0.06
36195 H 31.88475572995918 48.34927508001408 101.94282037540862 H 0.0 **** 0.06
36196 C 124.73280033914514 3.416782787386694 150.54673748004694 C 0.0 **** -0.24
36197 H 125.43627667511197 2.876480445069717 149.91416001834455 H 0.0 **** 0.06
36198 H 124.07208400438654 2.7060495699696503 151.04285446829726 H 0.0 **** 0.06
36199 H 124.14200749070508 4.097608411445037 149.93463772566218 H 0.0 **** 0.06
36200 H 125.28285306097746 3.9861740195057394 151.29641574731312 H 0.0 **** 0.06
36201 C 137.9666391712313 125.8986814992229 67.00831946466226 C 0.0 **** -0.24
36202 H 137.5167572689492 125.77413561742705 66.02333040206523 H 0.0 **** 0.06
36203 H 138.31831148753062 124.93364863125032 67.37158929016071 H 0.0 **** 0.06
36204 H 137.2233928589904 126.29843650348741 67.69775161848294 H 0.0 **** 0.06
36205 H 138.80648076042405 126.59004257552886 66.93836357621548 H 0.0 **** 0.06
36206 C 28.149176517134237 95.01128529025493 146.40877265349548 C 0.0 **** -0.24
36207 H 28.89500366760484 95.30951639083503 145.67115082362702 H 0.0 **** 0.06
36208 H 27.58190366991247 94.16204357641004 146.02798152774264 H 0.0 **** 0.06
36209 H 27.473266217251144 95.84601643871645 146.59794472301022 H 0.0 **** 0.06
36210 H 28.648306831264897 94.73033067970607 147.33622415960153 H 0.0 **** 0.06
36211 C 98.44358391852865 79.51399327528338 18.11431843240355 C 0.0 **** -0.24
36212 H 99.13845014485514 80.26559577930749 17.7394578392449 H 0.0 **** 0.06
36213 H 98.38291892726468 78.68871147699996 17.404278579258623 H 0.0 **** 0.06
36214 H 97.45665408610603 79.96119467447586 18.237095874433663 H 0.0 **** 0.06
36215 H 98.79560256013801 79.14106543251916 19.07606348762397 H 0.0 **** 0.06
36216 C 39.23917243771217 132.12426094210193 65.33100271030236 C 0.0 **** -0.24
36217 H 39.53938167560881 131.80468687445122 64.33386097630752 H 0.0 **** 0.06
36218 H 38.71162543663607 133.07637803219504 65.26329669880673 H 0.0 **** 0.06
36219 H 40.12435070822738 132.24329321051232 65.95609439546135 H 0.0 **** 0.06
36220 H 38.58141543795955 131.37424239100653 65.77151354103009 H 0.0 **** 0.06
36221 C 4.8532962314712265 58.24531501500849 130.6001953446274 C 0.0 **** -0.24
36222 H 5.005533653754206 57.21402073963037 130.91826410290508 H 0.0 **** 0.06
36223 H 4.720582388491202 58.87925982016395 131.4775897328901 H 0.0 **** 0.06
36224 H 3.9649845994703483 58.30426018826438 129.97213664152207 H 0.0 **** 0.06
36225 H 5.721915838021523 58.582773157465226 130.03563285283857 H 0.0 **** 0.06
36226 C 72.50433443275088 97.25667898830119 159.1137204628817 C 0.0 **** -0.24
36227 H 73.48534950318191 96.90257007259987 159.4308531969246 H 0.0 **** 0.06
36228 H 72.07006595010367 97.87434389694542 159.90090395575632 H 0.0 **** 0.06
36229 H 71.85501259975426 96.40278208362449 158.92180101654304 H 0.0 **** 0.06
36230 H 72.60840346908331 97.847093653994 158.20392433992475 H 0.0 **** 0.06
36231 C 120.49379553722954 65.16286704063967 116.30479535387025 C 0.0 **** -0.24
36232 H 119.4905151678874 64.98944859819717 116.69402587880268 H 0.0 **** 0.06
36233 H 120.62519104861218 64.60244962517024 115.37930500342236 H 0.0 **** 0.06
36234 H 121.22994233884674 64.83338269453047 117.03765672658528 H 0.0 **** 0.06
36235 H 120.62745923595503 66.22682067012485 116.10873783199963 H 0.0 **** 0.06
36236 C 17.51714588427231 136.66693949621776 79.33196085822979 C 0.0 **** -0.24
36237 H 17.081401347644487 135.70627078116758 79.60618552933911 H 0.0 **** 0.06
36238 H 17.362468147407554 137.37952289707698 80.14230619092632 H 0.0 **** 0.06
36239 H 17.038224337396713 137.03800902627472 78.42577135497754 H 0.0 **** 0.06
36240 H 18.585184920814214 136.5434119847755 79.1545815867326 H 0.0 **** 0.06
36241 C 2.7250686574459735 89.22875709925091 12.487192609101072 C 0.0 **** -0.24
36242 H 3.2969887077343287 89.54260229369324 13.360486093477846 H 0.0 **** 0.06
36243 H 1.668780521764802 89.44849579367828 12.64754592529303 H 0.0 **** 0.06
36244 H 2.855029851972631 88.15738287477473 12.335152458787405 H 0.0 **** 0.06
36245 H 3.0796766881752546 89.76686777265667 11.608006105025481 H 0.0 **** 0.06
36246 C 27.521343104086384 112.6055804438073 29.75982367523011 C 0.0 **** -0.24
36247 H 26.61849102452929 112.47693080084287 29.162809229662997 H 0.0 **** 0.06
36248 H 28.136985371123146 113.39248905302873 29.323394627103426 H 0.0 **** 0.06
36249 H 28.08239130545209 111.6715965384625 29.775629165851456 H 0.0 **** 0.06
36250 H 27.246953061187966 112.88145151802553 30.77828286799405 H 0.0 **** 0.06
36251 C 45.363369524996585 138.0124117478353 149.10387363452932 C 0.0 **** -0.24
36252 H 44.73769163300949 138.4650222899621 148.33379132309864 H 0.0 **** 0.06
36253 H 46.146041762917264 137.4184725268301 148.63199947470363 H 0.0 **** 0.06
36254 H 44.7510366734802 137.37017399965876 149.73673776269578 H 0.0 **** 0.06
36255 H 45.816837002612715 138.79556924553216 149.70991107607136 H 0.0 **** 0.06
36256 C 55.353788068682405 49.70747489919036 79.58770327654385 C 0.0 **** -0.24
36257 H 55.97625957670769 50.597319788560995 79.68146440907226 H 0.0 **** 0.06
36258 H 55.1094554977865 49.32884286426916 80.58036295782881 H 0.0 **** 0.06
36259 H 55.895882406903155 48.94250861513811 79.03080005228057 H 0.0 **** 0.06
36260 H 54.43540813926232 49.959682842931144 79.05776525460372 H 0.0 **** 0.06
36261 C 143.58394105422607 67.97558649461871 127.37737246433048 C 0.0 **** -0.24
36262 H 144.21591404543148 68.58206538760605 126.73005547086578 H 0.0 **** 0.06
36263 H 142.8319259396403 67.46393109461896 126.77661970436557 H 0.0 **** 0.06
36264 H 143.0910389573126 68.61684297020219 128.10802320756744 H 0.0 **** 0.06
36265 H 144.19749917165157 67.2384212697726 127.89689991712618 H 0.0 **** 0.06
36266 C 129.48695921713573 75.5448504118369 156.0548952246952 C 0.0 **** -0.24
36267 H 129.30288889845207 75.82588481741668 157.0923862710205 H 0.0 **** 0.06
36268 H 128.53805417369642 75.46827703621055 155.5247475380908 H 0.0 **** 0.06
36269 H 129.99863164010844 74.58309747497495 156.02523949211053 H 0.0 **** 0.06
36270 H 130.1099386102302 76.30289406481573 155.57848216843536 H 0.0 **** 0.06
36271 C 2.629029699623004 29.100871205579132 73.02539716916164 C 0.0 **** -0.24
36272 H 3.4701461883600615 29.20378426557278 73.71005604177306 H 0.0 **** 0.06
36273 H 2.9969373030896023 29.072728476748438 71.99955368688691 H 0.0 **** 0.06
36274 H 1.9563036313616635 29.950122533072886 73.14667654766725 H 0.0 **** 0.06
36275 H 2.093094735765021 28.178197485103546 73.24507588234046 H 0.0 **** 0.06
36276 C 155.87143097672313 77.58337444843806 66.65681857477654 C 0.0 **** -0.24
36277 H 155.3345215888754 77.14584690115319 67.49995906457222 H 0.0 **** 0.06
36278 H 155.20672997818497 78.25375781524379 66.11232930204551 H 0.0 **** 0.06
36279 H 156.211303140088 76.78843090399027 65.99275717747491 H 0.0 **** 0.06
36280 H 156.73142030112245 78.14335236767594 67.02477640021768 H 0.0 **** 0.06
36281 C 67.90047478814962 102.15588200667227 70.82061594668288 C 0.0 **** -0.24
36282 H 67.52316640984571 101.16571523072707 70.56318823194336 H 0.0 **** 0.06
36283 H 67.58669636744092 102.87141788291959 70.0603453506432 H 0.0 **** 0.06
36284 H 68.98881012566274 102.12906885256137 70.86933029372449 H 0.0 **** 0.06
36285 H 67.50054020794818 102.45495106271039 71.78998064380623 H 0.0 **** 0.06
36286 C 150.5985006255338 43.66819965645868 47.34822152252457 C 0.0 **** -0.24
36287 H 149.5392217987127 43.41375358798982 47.30346168789811 H 0.0 **** 0.06
36288 H 150.86604872103965 44.26217427463057 46.474165441198465 H 0.0 **** 0.06
36289 H 151.19097060404613 42.75356338868529 47.36242252514211 H 0.0 **** 0.06
36290 H 150.7957917413325 44.24305125673408 48.25260179897788 H 0.0 **** 0.06
36291 C 77.91650504972635 14.012614046536953 133.5789525285644 C 0.0 **** -0.24
36292 H 78.85974735702077 13.71972882374385 133.11809566889215 H 0.0 **** 0.06
36293 H 77.60490581219155 13.246310337449671 134.28794361649403 H 0.0 **** 0.06
36294 H 77.15519378501223 14.12569808359413 132.80600164589953 H 0.0 **** 0.06
36295 H 78.04672903072763 14.96119529630704 134.10101978475274 H 0.0 **** 0.06
36296 C 22.27930406520636 125.12056433170471 4.8424005161941395 C 0.0 **** -0.24
36297 H 22.827779918703456 124.19501268173576 4.665623096878512 H 0.0 **** 0.06
36298 H 22.48116933129441 125.82216789216216 4.031973613190424 H 0.0 **** 0.06
36299 H 22.596648556109365 125.55682569053332 5.789463530200507 H 0.0 **** 0.06
36300 H 21.211130236984168 124.90668788736431 4.880720202051357 H 0.0 **** 0.06
36301 C 60.83728100495995 32.84379567625956 21.093653856339074 C 0.0 **** -0.24
36302 H 60.32373052311368 32.963254703696066 22.04716959923178 H 0.0 **** 0.06
36303 H 61.19878136669038 31.819111361034516 21.00124481113275 H 0.0 **** 0.06
36304 H 61.681421076674724 33.532472850178294 21.04539230000026 H 0.0 **** 0.06
36305 H 60.14610736548356 33.060759315090024 20.278811751796695 H 0.0 **** 0.06
36306 C 19.348070249741113 46.33852645749553 123.19908695892394 C 0.0 **** -0.24
36307 H 20.31817513287725 46.83495650188377 123.16387895861325 H 0.0 **** 0.06
36308 H 18.596396470689903 46.9775396969392 122.7349000490473 H 0.0 **** 0.06
36309 H 19.073668842229637 46.15001429847962 124.23708160934694 H 0.0 **** 0.06
36310 H 19.404604451748504 45.39322904988154 122.6606015735542 H 0.0 **** 0.06
36311 C 11.984573666316408 10.033180238953207 127.380381523529 C 0.0 **** -0.24
36312 H 11.913820494097479 9.200858753959324 128.08186555238558 H 0.0 **** 0.06
36313 H 11.936161434608152 10.97415191857391 127.92812270375484 H 0.0 **** 0.06
36314 H 11.158088073916701 9.981787713912695 126.67196835754598 H 0.0 **** 0.06
36315 H 12.929535005259169 9.97375340216297 126.84124856582812 H 0.0 **** 0.06
36316 C 19.384871555401645 25.755097018459026 117.9946675773939 C 0.0 **** -0.24
36317 H 19.49889477385244 26.833149585345552 118.1103880998138 H 0.0 **** 0.06
36318 H 18.347903840121667 25.52391873027915 117.74913460505337 H 0.0 **** 0.06
36319 H 19.65693159001176 25.260215704774907 118.92713832149812 H 0.0 **** 0.06
36320 H 20.034645912093055 25.404692607466643 117.19312477086652 H 0.0 **** 0.06
36321 C 17.398928801188156 154.88046324631796 26.892503202011937 C 0.0 **** -0.24
36322 H 17.260742783381758 153.80440935138802 26.999519582943662 H 0.0 **** 0.06
36323 H 18.04165099267268 155.08009209555402 26.03419241361928 H 0.0 **** 0.06
36324 H 17.863096044843232 155.2785548731423 27.794435384375788 H 0.0 **** 0.06
36325 H 16.430839566224762 155.35712928405007 26.740507940070984 H 0.0 **** 0.06
36326 C 17.380619393118593 67.72865455512039 125.388520453795 C 0.0 **** -0.24
36327 H 16.885116604337156 66.75806199421851 125.39459565599881 H 0.0 **** 0.06
36328 H 16.924352775008288 68.36345273978296 124.6283981485337 H 0.0 **** 0.06
36329 H 18.438619340564514 67.59431877846424 125.16329197580066 H 0.0 **** 0.06
36330 H 17.273550492984327 68.19735284912235 126.36629700708716 H 0.0 **** 0.06
36331 C 67.08463590026315 27.13308669607312 21.28594407415504 C 0.0 **** -0.24
36332 H 66.98333182293447 26.895747741124325 22.34512043845448 H 0.0 **** 0.06
36333 H 66.29192334159154 27.82161623893751 20.992095907097053 H 0.0 **** 0.06
36334 H 67.00822827981892 26.217538358271185 20.699567090774167 H 0.0 **** 0.06
36335 H 68.05422257190173 27.598558392754853 21.10900724737496 H 0.0 **** 0.06
36336 C 22.253460833520705 160.31209865220418 25.52528287211709 C 0.0 **** -0.24
36337 H 22.567107249140008 161.20762463559953 26.06238529866215 H 0.0 **** 0.06
36338 H 22.41188468188261 160.4553996713947 24.456498257240355 H 0.0 **** 0.06
36339 H 21.195110349155698 160.1277996477529 25.714044715240192 H 0.0 **** 0.06
36340 H 22.837265590836523 159.45853555468773 25.869596530289897 H 0.0 **** 0.06
36341 C 31.341375641088803 152.05094120435382 112.89796302098077 C 0.0 **** -0.24
36342 H 31.413698408864178 152.72506170376863 113.7510262096246 H 0.0 **** 0.06
36343 H 30.46196019829887 151.41579927410075 113.01087496141042 H 0.0 **** 0.06
36344 H 32.2353737555637 151.42980485862628 112.84858844768766 H 0.0 **** 0.06
36345 H 31.252941165481758 152.63450309204157 111.98053139882549 H 0.0 **** 0.06
36346 C 159.06067903845465 11.240291230435105 96.41318025458503 C 0.0 **** -0.24
36347 H 158.26146835643033 10.901556026414084 97.07236353727365 H 0.0 **** 0.06
36348 H 158.66483764634847 11.389410364274141 95.40886211951823 H 0.0 **** 0.06
36349 H 159.8502313251524 10.489592543657409 96.3855485308186 H 0.0 **** 0.06
36350 H 159.46659437548482 12.180637621367026 96.78729826633071 H 0.0 **** 0.06
36351 C 8.865675271306259 8.878449899050736 143.11003177267048 C 0.0 **** -0.24
36352 H 9.823900354153025 9.217696399908277 143.50169657245638 H 0.0 **** 0.06
36353 H 8.699620537872818 7.8417687572842 143.40296161298218 H 0.0 **** 0.06
36354 H 8.871333966284162 8.953206405579976 142.0219020256145 H 0.0 **** 0.06
36355 H 8.067389778158322 9.502380828316177 143.51309547760593 H 0.0 **** 0.06
36356 C 140.0978993000296 106.90266120251144 52.38181231498562 C 0.0 **** -0.24
36357 H 140.55501240296002 106.24015902370968 51.64650398283568 H 0.0 **** 0.06
36358 H 139.22359521471134 106.41640418947432 52.81461636037888 H 0.0 **** 0.06
36359 H 139.79559370766998 107.83020415902502 51.89528558546502 H 0.0 **** 0.06
36360 H 140.81907027097407 107.12358131722382 53.16908012649924 H 0.0 **** 0.06
36361 C 102.90554114481816 95.09479104770233 115.65379962358986 C 0.0 **** -0.24
36362 H 103.56107487586155 95.83009419400805 115.18712450235512 H 0.0 **** 0.06
36363 H 101.8670285089218 95.39792243024904 115.51976703895525 H 0.0 **** 0.06
36364 H 103.13087577190927 95.0308983743413 116.71875873783011 H 0.0 **** 0.06
36365 H 103.06351877634012 94.12132015164417 115.19040959871245 H 0.0 **** 0.06
36366 C 70.02804179593072 155.8371915791688 129.98476253752906 C 0.0 **** -0.24
36367 H 70.23629081963993 156.90566311264507 130.02789888750166 H 0.0 **** 0.06
36368 H 68.95221873537103 155.67330786499252 130.06182607994472 H 0.0 **** 0.06
36369 H 70.53202556952125 155.33463636069126 130.8099100661293 H 0.0 **** 0.06
36370 H 70.3899946470445 155.43473881843295 129.03834625367264 H 0.0 **** 0.06
36371 C 35.697524891396284 86.82310597178036 158.80611143630648 C 0.0 **** -0.24
36372 H 34.69345074682691 87.02365653256588 159.17902485923025 H 0.0 **** 0.06
36373 H 35.633983230164034 86.36497250590168 157.81822374367027 H 0.0 **** 0.06
36374 H 36.20876390112507 86.14440794707245 159.48982304437777 H 0.0 **** 0.06
36375 H 36.253894191907264 87.75770988856357 158.73915952569308 H 0.0 **** 0.06
36376 C 26.515457170077894 23.982999313559162 8.664139743178339 C 0.0 **** -0.24
36377 H 25.48189801624784 24.15553469467676 8.365138316825835 H 0.0 **** 0.06
36378 H 26.717196933480892 22.911664627336563 8.67324617359938 H 0.0 **** 0.06
36379 H 26.677576098274102 24.3918889340099 9.661219766758705 H 0.0 **** 0.06
36380 H 27.185157632308744 24.47290899821337 7.956954715529264 H 0.0 **** 0.06
36381 C 134.75823116831938 149.85416506539195 72.11495630008552 C 0.0 **** -0.24
36382 H 134.72564948511572 149.17936179602447 72.96987607031909 H 0.0 **** 0.06
36383 H 135.6264887096768 150.5086196844012 72.20148893412731 H 0.0 **** 0.06
36384 H 133.84921086026534 150.45621739554065 72.09215359162944 H 0.0 **** 0.06
36385 H 134.83157561821957 149.2724613856014 71.19630660426634 H 0.0 **** 0.06
36386 C 98.25673165536963 42.115375084608644 145.15816857548754 C 0.0 **** -0.24
36387 H 97.98291467804253 43.16987422451513 145.17403222636108 H 0.0 **** 0.06
36388 H 98.91567492289886 41.898988929602794 146.00002646602212 H 0.0 **** 0.06
36389 H 98.77310587686512 41.886980770454144 144.22557457502774 H 0.0 **** 0.06
36390 H 97.35664681315544 41.505073907952934 145.2346709786117 H 0.0 **** 0.06
36391 C 36.77387356328444 49.506415789624256 125.68940356965246 C 0.0 **** -0.24
36392 H 36.445644111731454 49.19026839668449 126.67951523307258 H 0.0 **** 0.06
36393 H 37.159508378211626 48.64430941151866 125.14334102806279 H 0.0 **** 0.06
36394 H 37.559641133588514 50.25467750617548 125.78915606336125 H 0.0 **** 0.06
36395 H 35.93050726788108 49.93364619823468 125.14675789307199 H 0.0 **** 0.06
36396 C 28.73354536598265 111.53420722609712 1.3591654584661228 C 0.0 **** -0.24
36397 H 28.29886836353529 112.3715347293001 0.8114762492810996 H 0.0 **** 0.06
36398 H 29.82042512103405 111.61069509184674 1.3357592968980043 H 0.0 **** 0.06
36399 H 28.42444954200073 110.59737445930492 0.894785208042606 H 0.0 **** 0.06
36400 H 28.389779846080444 111.55835315046355 2.3928264622439315 H 0.0 **** 0.06
36401 C 118.28051686351353 88.58286733728136 84.93428919525876 C 0.0 **** -0.24
36402 H 118.09750717785982 87.65833238504398 85.4811204381469 H 0.0 **** 0.06
36403 H 117.32726486585636 89.03923471098204 84.66281657744534 H 0.0 **** 0.06
36404 H 118.84934469878272 88.3644891651547 84.03020914396794 H 0.0 **** 0.06
36405 H 118.84623425261623 89.27065948973876 85.56230323036766 H 0.0 **** 0.06
36406 C 31.76649870898885 68.87596216633823 104.18251651877506 C 0.0 **** -0.24
36407 H 31.85827865057354 69.93146019790976 103.92623307031789 H 0.0 **** 0.06
36408 H 30.786960278354115 68.51199721278056 103.87359936146265 H 0.0 **** 0.06
36409 H 31.87893888895502 68.75342481461114 105.25973685744844 H 0.0 **** 0.06
36410 H 32.543605600779415 68.3092512025155 103.66973448409135 H 0.0 **** 0.06
36411 C 135.37596593346007 39.682479954152114 17.87447376707309 C 0.0 **** -0.24
36412 H 135.0245625395488 38.654155516410526 17.787024490888562 H 0.0 **** 0.06
36413 H 135.2779557347047 40.01161763520321 18.90908154360701 H 0.0 **** 0.06
36414 H 134.77873752455832 40.325448584586525 17.229330085850727 H 0.0 **** 0.06
36415 H 136.42202732754535 39.73556218770554 17.573369664086712 H 0.0 **** 0.06
36416 C 12.784284393461292 25.168384814156838 106.05440591760566 C 0.0 **** -0.24
36417 H 12.587444197500105 24.971594039732935 107.10745488723342 H 0.0 **** 0.06
36418 H 12.191784707340418 26.022920488691796 105.72797100664269 H 0.0 **** 0.06
36419 H 12.513762282856987 24.29240260960279 105.4647697384462 H 0.0 **** 0.06
36420 H 13.842988566715775 25.386515859592947 105.9166229147886 H 0.0 **** 0.06
36421 C 32.350855437460645 152.32609082556954 161.23437232335615 C 0.0 **** -0.24
36422 H 32.738768027598 153.0590819208704 160.5275741139642 H 0.0 **** 0.06
36423 H 31.261891585628327 152.3006337407898 161.1714708694151 H 0.0 **** 0.06
36424 H 32.64969652356412 152.60334147518014 162.2455384592659 H 0.0 **** 0.06
36425 H 32.751894145818596 151.34122942726486 160.99369441665092 H 0.0 **** 0.06
36426 C 148.55542327575873 81.48000593216982 129.6776641346716 C 0.0 **** -0.24
36427 H 148.97242752340355 81.62665424259832 128.6806648238652 H 0.0 **** 0.06
36428 H 148.979710771592 80.57759067604957 130.11791711323815 H 0.0 **** 0.06
36429 H 147.4725481787133 81.376400169394 129.60677524733964 H 0.0 **** 0.06
36430 H 148.79865698319605 82.33844557739947 130.30223241481767 H 0.0 **** 0.06
36431 C 20.243479255452186 2.8213438260481496 110.6511411241591 C 0.0 **** -0.24
36432 H 20.09625360402743 3.6751281764247494 109.9895795230243 H 0.0 **** 0.06
36433 H 19.38765854263307 2.7293799620226196 111.32053968828188 H 0.0 **** 0.06
36434 H 21.150084995390145 2.969160644847932 111.2380781579468 H 0.0 **** 0.06
36435 H 20.339301634935637 1.9128532533146654 110.0569174349904 H 0.0 **** 0.06
36436 C 70.06686598885581 133.9283665104526 59.37583415396797 C 0.0 **** -0.24
36437 H 69.01293663778456 133.98972786582485 59.10362544938535 H 0.0 **** 0.06
36438 H 70.39458517003585 132.8901373592398 59.32233437667044 H 0.0 **** 0.06
36439 H 70.20154783974976 134.30090711051798 60.391563533397346 H 0.0 **** 0.06
36440 H 70.65598756745288 134.5327212831047 58.68535826054713 H 0.0 **** 0.06
36441 C 32.43480454276104 58.35454035081271 78.9810324910001 C 0.0 **** -0.24
36442 H 33.12640367188719 58.035803865640816 78.20056430996564 H 0.0 **** 0.06
36443 H 31.984249332506216 59.30621598857614 78.70003013295738 H 0.0 **** 0.06
36444 H 32.97568822978778 58.47021305231132 79.91966846147034 H 0.0 **** 0.06
36445 H 31.654127238763387 57.603644205352666 79.10207288573147 H 0.0 **** 0.06
36446 C 127.45207743796988 41.65055887774467 125.74305064432897 C 0.0 **** -0.24
36447 H 126.54128142544278 42.03462217113416 126.2033656359865 H 0.0 **** 0.06
36448 H 128.26547077184782 41.679624348213935 126.46809432572627 H 0.0 **** 0.06
36449 H 127.70982750773541 42.264896920808624 124.88013956134151 H 0.0 **** 0.06
36450 H 127.2891645475971 40.62169766661248 125.4212916194989 H 0.0 **** 0.06
36451 C 66.8941798156535 130.94606206880184 140.8918865673346 C 0.0 **** -0.24
36452 H 65.84881433526476 131.15637606577917 140.6664095536247 H 0.0 **** 0.06
36453 H 67.36502412809881 131.84274133609503 141.2963922146346 H 0.0 **** 0.06
36454 H 67.40938240391773 130.64489748025304 139.97998798349738 H 0.0 **** 0.06
36455 H 66.95236603081918 130.14211541072427 141.62584092584262 H 0.0 **** 0.06
36456 C 84.82476695197852 131.13722046463067 53.094927722109446 C 0.0 **** -0.24
36457 H 84.50990959339566 131.71354598420348 53.965427936902884 H 0.0 **** 0.06
36458 H 85.27522192641722 130.20069166347227 53.42397024431837 H 0.0 **** 0.06
36459 H 85.55482991823654 131.71223896491668 52.52458776174019 H 0.0 **** 0.06
36460 H 83.9592299158119 130.92436440615285 52.468910357559764 H 0.0 **** 0.06
36461 C 124.98833382395605 131.28734396458015 154.23550195540514 C 0.0 **** -0.24
36462 H 125.88473761640628 130.66868980894156 154.28666010502 H 0.0 **** 0.06
36463 H 125.22538771830529 132.2972885855504 154.5699061522065 H 0.0 **** 0.06
36464 H 124.21661371172576 130.86207489950647 154.8770891628037 H 0.0 **** 0.06
36465 H 124.62856311102135 131.31941700532514 153.20677107239592 H 0.0 **** 0.06
36466 C 137.58924857533566 151.5606355407317 98.20312375357273 C 0.0 **** -0.24
36467 H 136.7629979416865 151.7050161906309 98.89913594471147 H 0.0 **** 0.06
36468 H 137.1954244994156 151.41770276611732 97.19591636074537 H 0.0 **** 0.06
36469 H 138.1621186313087 150.6812761970038 98.49727489792573 H 0.0 **** 0.06
36470 H 138.23624279877973 152.4374324954652 98.21932303951795 H 0.0 **** 0.06
36471 C 109.77351766706133 108.04703492513661 78.15204796205639 C 0.0 **** -0.24
36472 H 109.20188838356148 107.22023748295248 78.5728243715257 H 0.0 **** 0.06
36473 H 109.43277687526773 108.98525526180731 78.59248097194205 H 0.0 **** 0.06
36474 H 109.6263716586605 108.07837550432654 77.07188375461041 H 0.0 **** 0.06
36475 H 110.83147475012098 107.90602765646221 78.37030601340211 H 0.0 **** 0.06
36476 C 132.51174252699934 146.9967477710867 0.8456552182714461 C 0.0 **** -0.24
36477 H 132.1211455576294 147.97337611970678 0.5609818771528694 H 0.0 **** 0.06
36478 H 132.59842278252063 146.36733748496596 -0.040290093274705896 H 0.0 **** 0.06
36479 H 131.83384393277254 146.52825355749445 1.559056591862145 H 0.0 **** 0.06
36480 H 133.49431141541146 147.11738349393158 1.3030208163109194 H 0.0 **** 0.06
36481 C 78.77596061373009 116.96565105628343 118.2836730741165 C 0.0 **** -0.24
36482 H 78.82699816774186 117.39548613545509 117.28392671073848 H 0.0 **** 0.06
36483 H 78.30720728760457 117.67780009400303 118.96275990324747 H 0.0 **** 0.06
36484 H 79.78246708393343 116.73802445814829 118.633169398007 H 0.0 **** 0.06
36485 H 78.18564103104723 116.04883349003251 118.25405465166662 H 0.0 **** 0.06
36486 C 56.33364580745433 92.20941360101142 51.07571817703064 C 0.0 **** -0.24
36487 H 56.09217005101101 91.15322021615151 51.191678621070764 H 0.0 **** 0.06
36488 H 56.9448024714971 92.53559690262063 51.91778341690433 H 0.0 **** 0.06
36489 H 55.412646651902946 92.79092737973022 51.04862376327026 H 0.0 **** 0.06
36490 H 56.88538680567231 92.35681645045327 50.147548411865074 H 0.0 **** 0.06
36491 C 106.26608418111547 71.48205874852673 161.83367107963602 C 0.0 **** -0.24
36492 H 105.8871032162362 70.47271695961176 161.67383543727468 H 0.0 **** 0.06
36493 H 106.6949832367142 71.55542435273516 162.8338135644838 H 0.0 **** 0.06
36494 H 105.45022536924918 72.19681117315392 161.7344280774059 H 0.0 **** 0.06
36495 H 107.03469509122465 71.70207140344942 161.09197195454126 H 0.0 **** 0.06
36496 C 65.26106746819626 161.35443298332572 84.20285517900763 C 0.0 **** -0.24
36497 H 64.59723273042478 160.54124184202263 83.90803406732911 H 0.0 **** 0.06
36498 H 64.75335840024303 162.308035092755 84.054880847201 H 0.0 **** 0.06
36499 H 66.16403296377234 161.32472576867153 83.59352880245112 H 0.0 **** 0.06
36500 H 65.52700360964633 161.24373271592168 85.25355601205557 H 0.0 **** 0.06
36501 C 72.91908660072684 114.5480036395048 159.75546961140208 C 0.0 **** -0.24
36502 H 73.40962811227314 114.37725371205806 158.7975722677114 H 0.0 **** 0.06
36503 H 73.67007542260274 114.59907030101999 160.5434929774461 H 0.0 **** 0.06
36504 H 72.22995992156319 113.7294953617461 159.96146342331363 H 0.0 **** 0.06
36505 H 72.36647516534174 115.48745192974613 159.71873538681328 H 0.0 **** 0.06
36506 C 157.01439552372597 20.483108671349157 55.38093482548187 C 0.0 **** -0.24
36507 H 156.20687266089374 20.231381029749542 56.06856618183569 H 0.0 **** 0.06
36508 H 156.92269713533182 19.88129106873788 54.47692773137224 H 0.0 **** 0.06
36509 H 157.97315983645504 20.278718998910165 55.85777412621671 H 0.0 **** 0.06
36510 H 156.95513999718423 21.540144751065753 55.12249846913116 H 0.0 **** 0.06
36511 C 65.83208428476647 85.57784018933188 96.29440035010236 C 0.0 **** -0.24
36512 H 66.66379774497314 85.3147598125085 96.94855653541947 H 0.0 **** 0.06
36513 H 65.72060991480515 86.661266969667 96.26660287673326 H 0.0 **** 0.06
36514 H 64.91486577155159 85.12798461810993 96.67485669340425 H 0.0 **** 0.06
36515 H 66.02871134456521 85.20597474921243 95.28931342806777 H 0.0 **** 0.06
36516 C 68.10483688096639 77.3297936157349 72.75379865744264 C 0.0 **** -0.24
36517 H 68.75732021832536 76.56418945531698 72.33269338143921 H 0.0 **** 0.06
36518 H 68.51767502756297 77.67810008697876 73.70021775244595 H 0.0 **** 0.06
36519 H 67.11380584405615 76.90861376327001 72.92122880867021 H 0.0 **** 0.06
36520 H 68.03109179271388 78.16609317014338 72.05882774823692 H 0.0 **** 0.06
36521 C 114.0447607422438 152.47090325569678 97.66139221736057 C 0.0 **** -0.24
36522 H 114.03603692875566 152.4383297993353 96.57222386467811 H 0.0 **** 0.06
36523 H 114.47795841260805 153.41539334287899 97.99240301077589 H 0.0 **** 0.06
36524 H 114.64169292220373 151.64396859361113 98.04447948802135 H 0.0 **** 0.06
36525 H 113.02420930945235 152.38767634948675 98.03498278013444 H 0.0 **** 0.06
36526 C 155.9275032263219 38.498306541415516 107.45585063995901 C 0.0 **** -0.24
36527 H 156.09387738862807 37.46170840457471 107.74786224615332 H 0.0 **** 0.06
36528 H 155.10032786777498 38.90923402874945 108.03395561108204 H 0.0 **** 0.06
36529 H 155.68740249467032 38.54205761186341 106.3940021066457 H 0.0 **** 0.06
36530 H 156.82990379189744 39.078576938321206 107.6477681605515 H 0.0 **** 0.06
36531 C 152.44929983453903 1.847821356719976 21.862356052178114 C 0.0 **** -0.24
36532 H 151.36626249799215 1.7275984596561216 21.896436151085595 H 0.0 **** 0.06
36533 H 152.79165003735292 1.7583684796212538 20.830693597449084 H 0.0 **** 0.06
36534 H 152.9193930163846 1.0750066932694722 22.469793065633155 H 0.0 **** 0.06
36535 H 152.71786529172527 2.8295030038913183 22.250444372695142 H 0.0 **** 0.06
36536 C 108.4241115542749 76.85033406848346 16.414133566441848 C 0.0 **** -0.24
36537 H 108.8216735247097 76.59743595961535 17.39708925491601 H 0.0 **** 0.06
36538 H 108.72777648458546 76.09167383724153 15.693231977688413 H 0.0 **** 0.06
36539 H 108.81152834552876 77.82112550439795 16.105198185344193 H 0.0 **** 0.06
36540 H 107.33627568667819 76.8920950903115 16.46310274890547 H 0.0 **** 0.06
36541 C 104.28569825879228 83.09412150096489 108.51153386439455 C 0.0 **** -0.24
36542 H 104.89290254094624 83.33060524024405 109.38430084568569 H 0.0 **** 0.06
36543 H 104.81625204093996 83.39447296577845 107.60740855831787 H 0.0 **** 0.06
36544 H 103.33807639313198 83.62949717911593 108.57228372029087 H 0.0 **** 0.06
36545 H 104.09513322341348 82.02140345637373 108.4808937557867 H 0.0 **** 0.06
36546 C 32.18606934981938 155.66522271366017 80.76073362936583 C 0.0 **** -0.24
36547 H 33.24911822259287 155.90181623136095 80.71460923627035 H 0.0 **** 0.06
36548 H 31.94402709875527 154.930400824299 79.99177183040041 H 0.0 **** 0.06
36549 H 31.604166102166744 156.5710671813324 80.5941256130377 H 0.0 **** 0.06
36550 H 31.94757795574617 155.25523478594238 81.74243655199368 H 0.0 **** 0.06
36551 C 59.371906704625815 118.4343991295114 60.267347096043466 C 0.0 **** -0.24
36552 H 59.56579938798808 118.45888214710959 61.33993419331435 H 0.0 **** 0.06
36553 H 60.29524796562207 118.20096091393543 59.73618854745092 H 0.0 **** 0.06
36554 H 59.001967447678595 119.40689913653216 59.94335554874954 H 0.0 **** 0.06
36555 H 58.62512478926567 117.67107772920906 60.05073906000115 H 0.0 **** 0.06
36556 C 86.77515028838582 129.6288536113658 25.27053667866994 C 0.0 **** -0.24
36557 H 87.14935383617643 128.9283876644343 24.524308160797112 H 0.0 **** 0.06
36558 H 86.16397291250709 129.092454651755 25.9973105556669 H 0.0 **** 0.06
36559 H 86.17136227657406 130.39276588046712 24.780966531783584 H 0.0 **** 0.06
36560 H 87.61512475910001 130.10071813895564 25.77911860406303 H 0.0 **** 0.06
36561 C 110.28214070509995 153.13539554211945 26.46994795259542 C 0.0 **** -0.24
36562 H 109.68603327195058 152.79944577878766 27.31792113336158 H 0.0 **** 0.06
36563 H 111.22743171967502 152.59230788354088 26.452553399114407 H 0.0 **** 0.06
36564 H 110.47908138488535 154.20329732874845 26.564742473498768 H 0.0 **** 0.06
36565 H 109.73631160594209 152.9472482733101 25.54575747645748 H 0.0 **** 0.06
36566 C 8.015881333416814 29.27413346850937 85.30306982479122 C 0.0 **** -0.24
36567 H 7.473078946428558 28.408308273289094 85.68174797746771 H 0.0 **** 0.06
36568 H 8.689627003265855 29.64615477602957 86.07543877723559 H 0.0 **** 0.06
36569 H 7.307888451999588 30.055713634824784 85.02946181026755 H 0.0 **** 0.06
36570 H 8.593882976966995 28.984342721450084 84.42461303664673 H 0.0 **** 0.06
36571 C 64.74361152227976 25.99907216533677 117.99861164677156 C 0.0 **** -0.24
36572 H 65.38362192284264 25.89260776953779 117.12173712412732 H 0.0 **** 0.06
36573 H 64.50912446325238 27.053548126892252 118.15080291072044 H 0.0 **** 0.06
36574 H 65.26205407981318 25.610712723935308 118.87542127476067 H 0.0 **** 0.06
36575 H 63.82076107468866 25.44010785033572 117.84378658188285 H 0.0 **** 0.06
36576 C 62.480129616566174 114.61564944331423 132.2097764214961 C 0.0 **** -0.24
36577 H 62.939792173920196 114.0674457004605 133.0318858016155 H 0.0 **** 0.06
36578 H 63.02464364315084 114.41091754252534 131.28737671765094 H 0.0 **** 0.06
36579 H 62.51399303370677 115.68417659057013 132.42281366210736 H 0.0 **** 0.06
36580 H 61.44291641060413 114.29951171377718 132.097163956292 H 0.0 **** 0.06
36581 C 51.47437835184235 159.56710963021425 161.31056875729297 C 0.0 **** -0.24
36582 H 50.63809073549052 160.18560672774652 160.98435835612634 H 0.0 **** 0.06
36583 H 51.28310070460873 158.52833326753105 161.04401042691433 H 0.0 **** 0.06
36584 H 51.58785626095353 159.6508778142889 162.39100685611834 H 0.0 **** 0.06
36585 H 52.38865539231624 159.90579936630218 160.82243287906778 H 0.0 **** 0.06
36586 C 23.03945090591219 3.5742880153872463 152.97054212334154 C 0.0 **** -0.24
36587 H 23.280893307832343 2.7285978419693606 152.32686243263683 H 0.0 **** 0.06
36588 H 23.26174510430451 4.503987240542507 152.44668479694448 H 0.0 **** 0.06
36589 H 23.63439268537121 3.518236901588402 153.88176239693712 H 0.0 **** 0.06
36590 H 21.97978329827589 3.5453836402132026 153.22540085261198 H 0.0 **** 0.06
36591 C 97.71675016959855 111.35444659372905 47.538648532811635 C 0.0 **** -0.24
36592 H 97.66004158697856 111.29740622628623 48.62569378950235 H 0.0 **** 0.06
36593 H 98.19157763863464 112.2923008987533 47.24836751534889 H 0.0 **** 0.06
36594 H 96.71254792872443 111.30939381538144 47.118928486033724 H 0.0 **** 0.06
36595 H 98.30614210163716 110.51755476854964 47.1624848522892 H 0.0 **** 0.06
36596 C 40.04459670808298 142.47891461640677 119.23967390966325 C 0.0 **** -0.24
36597 H 40.66138433750203 141.60846747071997 119.46598272400553 H 0.0 **** 0.06
36598 H 39.54708212130089 142.33190549294693 118.28078161920632 H 0.0 **** 0.06
36599 H 40.67403332817376 143.3675389914528 119.19087717849092 H 0.0 **** 0.06
36600 H 39.29591867472236 142.60637428247827 120.02211056399577 H 0.0 **** 0.06
36601 C 109.57245703929055 112.37650402245617 35.85765919928775 C 0.0 **** -0.24
36602 H 110.32789953158766 113.15833929382961 35.94207563644852 H 0.0 **** 0.06
36603 H 109.19880473003536 112.34228724976685 34.83436060412075 H 0.0 **** 0.06
36604 H 108.74908448006434 112.59258749314375 36.5378940085497 H 0.0 **** 0.06
36605 H 110.01504306699599 111.41453200689148 36.11629853738103 H 0.0 **** 0.06
36606 C 84.1898128057546 135.20619273940616 68.98578592431016 C 0.0 **** -0.24
36607 H 84.77436592383079 134.61534351018224 68.27987819179657 H 0.0 **** 0.06
36608 H 84.82802502544654 135.96091340501042 69.44412172029769 H 0.0 **** 0.06
36609 H 83.78653542021294 134.55216919285877 69.75913087776328 H 0.0 **** 0.06
36610 H 83.37042859475616 135.69370700927195 68.45899738892308 H 0.0 **** 0.06
36611 C 32.93589313706241 30.932595126452064 103.2048252059418 C 0.0 **** -0.24
36612 H 33.46272338102375 31.340888066230107 104.06687891876072 H 0.0 **** 0.06
36613 H 32.952465437855096 29.842640716865482 103.25242429601968 H 0.0 **** 0.06
36614 H 33.425354089119566 31.263426296301255 102.28988011997592 H 0.0 **** 0.06
36615 H 31.903333403861637 31.28113258230517 103.21202821274665 H 0.0 **** 0.06
36616 C 51.28450975947109 14.494623723043901 108.99598952600923 C 0.0 **** -0.24
36617 H 51.27061853268229 14.268016314866117 110.06252738318807 H 0.0 **** 0.06
36618 H 50.31221821015437 14.26144063075111 108.56315513114359 H 0.0 **** 0.06
36619 H 52.053986557854984 13.895197400810105 108.5079952223434 H 0.0 **** 0.06
36620 H 51.502681657943555 15.552659845681887 108.853355658575 H 0.0 **** 0.06
36621 C 102.09490427024411 85.01471478918293 23.888773680523535 C 0.0 **** -0.24
36622 H 102.77801918265857 84.52178114940219 23.196755391969972 H 0.0 **** 0.06
36623 H 101.09837444086634 85.05709511213904 23.447091533400297 H 0.0 **** 0.06
36624 H 102.44752197967682 86.02644125867049 24.087215445023304 H 0.0 **** 0.06
36625 H 102.05600037406157 84.45334857026413 24.82182474273806 H 0.0 **** 0.06
36626 C 42.939209142553864 22.086130295495906 22.498607621509358 C 0.0 **** -0.24
36627 H 42.261522944778164 22.79975762595342 22.029809890861152 H 0.0 **** 0.06
36628 H 42.62869560171396 21.071886600423994 22.24625282229976 H 0.0 **** 0.06
36629 H 42.912526552327336 22.21703001620591 23.579954526949436 H 0.0 **** 0.06
36630 H 43.95298196445498 22.256376554176484 22.13629459455963 H 0.0 **** 0.06
36631 C 35.5312817408972 64.48563992076356 60.618145193724445 C 0.0 **** -0.24
36632 H 36.37461059929545 64.964610825801 61.11602989605109 H 0.0 **** 0.06
36633 H 34.729951095392536 65.21277387602976 60.482604434192126 H 0.0 **** 0.06
36634 H 35.172036341709685 63.65644703513561 61.227740765556064 H 0.0 **** 0.06
36635 H 35.849391159215344 64.10954465600844 59.64543782416257 H 0.0 **** 0.06
36636 C 78.56582895967273 160.29683152761763 145.05430496321605 C 0.0 **** -0.24
36637 H 78.45697234782693 159.92613485956673 144.03534468063793 H 0.0 **** 0.06
36638 H 77.59239227890737 160.29688063180856 145.54625813898295 H 0.0 **** 0.06
36639 H 78.96113155647282 161.31213648207822 145.03105526133604 H 0.0 **** 0.06
36640 H 79.25043016090109 159.6516924193035 145.6043200183848 H 0.0 **** 0.06
36641 C 16.005670518164834 16.9733245777237 43.9150237440184 C 0.0 **** -0.24
36642 H 15.225210841373531 16.804461094798455 43.172659485652545 H 0.0 **** 0.06
36643 H 16.5534555498435 16.0456431818821 44.08355466643101 H 0.0 **** 0.06
36644 H 15.552318749434697 17.303148161878823 44.84931246064234 H 0.0 **** 0.06
36645 H 16.691427435816955 17.739230654588596 43.55227424632599 H 0.0 **** 0.06
36646 C 86.66043204029168 21.36795148922978 13.332703071318065 C 0.0 **** -0.24
36647 H 86.72741668692069 21.961353682489495 12.420500917801178 H 0.0 **** 0.06
36648 H 87.61565769628434 21.401250909685487 13.85780304906848 H 0.0 **** 0.06
36649 H 86.42224384428646 20.335909219627737 13.077460129208305 H 0.0 **** 0.06
36650 H 85.87854708799091 21.774083101924923 13.974149779578624 H 0.0 **** 0.06
36651 C 114.8016767468531 160.39953104756833 68.81386242596955 C 0.0 **** -0.24
36652 H 114.79440127029477 159.3501511954431 69.10945313129804 H 0.0 **** 0.06
36653 H 113.8743394489174 160.8730208756713 69.13639269831793 H 0.0 **** 0.06
36654 H 114.89002135502815 160.47034867336615 67.73004420723123 H 0.0 **** 0.06
36655 H 115.64826774933812 160.90200060464974 69.28158977214514 H 0.0 **** 0.06
36656 C 81.52039527988232 132.52705454683596 49.093610596227464 C 0.0 **** -0.24
36657 H 82.58572379548559 132.55091582684844 48.865639918657195 H 0.0 **** 0.06
36658 H 81.31610214030671 133.17630931143606 49.94480646711152 H 0.0 **** 0.06
36659 H 81.22413871472128 131.50566242243232 49.33516197705315 H 0.0 **** 0.06
36660 H 80.95619040400668 132.87337074309548 48.227481381614865 H 0.0 **** 0.06
36661 C 129.30937339014662 18.407568710381213 37.045017517703954 C 0.0 **** -0.24
36662 H 128.87600457993224 18.57451410264352 38.03001015700397 H 0.0 **** 0.06
36663 H 129.33280603823985 19.34822450692252 36.49416049343661 H 0.0 **** 0.06
36664 H 128.7054118821125 17.68207552736709 36.50047001727077 H 0.0 **** 0.06
36665 H 130.32413773992934 18.024974128829427 37.15401088239922 H 0.0 **** 0.06
36666 C 31.04544996457932 20.56718034955452 78.14844251697502 C 0.0 **** -0.24
36667 H 31.05193134494786 20.13408902282987 77.14793276377048 H 0.0 **** 0.06
36668 H 31.99646205320721 20.357755028025906 78.63993305657726 H 0.0 **** 0.06
36669 H 30.23274705089193 20.130691947371304 78.7275881410788 H 0.0 **** 0.06
36670 H 30.90330087638847 21.645420204242555 78.07711719090116 H 0.0 **** 0.06
36671 C 40.70559285904494 154.1767466610283 50.94148659038717 C 0.0 **** -0.24
36672 H 40.56863692433434 154.23041129474046 49.861413890190306 H 0.0 **** 0.06
36673 H 40.92498314008566 153.14929855020335 51.228742722785285 H 0.0 **** 0.06
36674 H 39.793225072016895 154.5076404081522 51.439236781001455 H 0.0 **** 0.06
36675 H 41.53360856169077 154.82217559519302 51.234584428662515 H 0.0 **** 0.06
36676 C 103.88217267845573 28.182095585039683 141.22136381893188 C 0.0 **** -0.24
36677 H 104.07700985329359 27.981606883171786 140.1677027636685 H 0.0 **** 0.06
36678 H 103.78277377539695 27.23871111364749 141.75861465876835 H 0.0 **** 0.06
36679 H 102.95999346938166 28.755340062710957 141.3176453688962 H 0.0 **** 0.06
36680 H 104.71030671049672 28.75359825427205 141.64094884146084 H 0.0 **** 0.06
36681 C 117.04374505198899 9.07764842816713 100.45843373488879 C 0.0 **** -0.24
36682 H 116.16072643813396 9.702882323184 100.58749781087747 H 0.0 **** 0.06
36683 H 117.48732470535475 8.871284025190533 101.43283493638594 H 0.0 **** 0.06
36684 H 117.76790142936818 9.59708281520907 99.83224585496944 H 0.0 **** 0.06
36685 H 116.75761414952149 8.138807599589846 99.98280372758018 H 0.0 **** 0.06
36686 C 14.953052499208162 141.49804429834825 71.01237204517844 C 0.0 **** -0.24
36687 H 14.069467634170884 141.91737494145815 70.531929090901 H 0.0 **** 0.06
36688 H 15.80748244215237 142.1506135227636 70.83502291732935 H 0.0 **** 0.06
36689 H 15.157256012875507 140.51041469148026 70.59762444545562 H 0.0 **** 0.06
36690 H 14.777285812018029 141.41190947777483 72.08500047230523 H 0.0 **** 0.06
36691 C 115.99700242961325 71.23602780383516 81.03159396839514 C 0.0 **** -0.24
36692 H 114.91993817413368 71.11086730096581 80.92403342803031 H 0.0 **** 0.06
36693 H 116.35429936496439 70.62062676849912 81.85695346969318 H 0.0 **** 0.06
36694 H 116.22279454614215 72.28270029081223 81.23389191879394 H 0.0 **** 0.06
36695 H 116.49067736809468 70.93004590431221 80.10851486679873 H 0.0 **** 0.06
36696 C 141.04277032740987 106.84901411245392 106.00090136054462 C 0.0 **** -0.24
36697 H 141.21451544168943 105.78090621253114 105.87012687467325 H 0.0 **** 0.06
36698 H 141.4285214518283 107.38780123758187 105.13557231717067 H 0.0 **** 0.06
36699 H 141.55509024751902 107.19141437256496 106.9000977918779 H 0.0 **** 0.06
36700 H 139.9740169368365 107.0358680367878 106.09917454042557 H 0.0 **** 0.06
36701 C 38.0463133338681 23.373525712305806 139.27845184411854 C 0.0 **** -0.24
36702 H 37.31013164187334 23.02116051560882 138.55511777351313 H 0.0 **** 0.06
36703 H 39.01377074193566 23.483178694634994 138.78705456676022 H 0.0 **** 0.06
36704 H 38.13067324735255 22.651856705241237 140.09105390506397 H 0.0 **** 0.06
36705 H 37.72959881742585 24.335885666125 139.6781830460033 H 0.0 **** 0.06
36706 C 30.391586918451765 47.40401342686454 145.21531966700266 C 0.0 **** -0.24
36707 H 31.41830053564226 47.766308057092886 145.27088599376856 H 0.0 **** 0.06
36708 H 30.393521604805386 46.346809176966104 144.94843334034022 H 0.0 **** 0.06
36709 H 29.848449694731926 47.96907958843161 144.45730708882883 H 0.0 **** 0.06
36710 H 29.907413869359345 47.53391547924787 146.18260128882048 H 0.0 **** 0.06
36711 C 26.828891487627402 55.80630655703479 53.66303677684539 C 0.0 **** -0.24
36712 H 27.297869904433355 55.82503746560502 52.679269399275995 H 0.0 **** 0.06
36713 H 27.598873142562383 55.86185529166504 54.43274026135488 H 0.0 **** 0.06
36714 H 26.265992337552404 54.88035117658707 53.77902394894012 H 0.0 **** 0.06
36715 H 26.154724894203184 56.65681665217285 53.76008734964108 H 0.0 **** 0.06
36716 C 18.423852437715404 36.392599434497924 96.95431577656461 C 0.0 **** -0.24
36717 H 19.46839177197655 36.50350878173096 97.24597578692757 H 0.0 **** 0.06
36718 H 18.059697434464034 35.414471327004975 97.26952112681272 H 0.0 **** 0.06
36719 H 18.33884993074517 36.48057810753993 95.87085179208083 H 0.0 **** 0.06
36720 H 17.829204039151932 37.17200449354118 97.42971651407896 H 0.0 **** 0.06
36721 C 93.42186331066824 52.75748489031366 61.92466771193877 C 0.0 **** -0.24
36722 H 92.46070936998183 53.16592831391847 61.61043536695186 H 0.0 **** 0.06
36723 H 93.52675654372217 52.86719777801875 63.00354736936315 H 0.0 **** 0.06
36724 H 94.22597407098186 53.29572979868118 61.42383227931792 H 0.0 **** 0.06
36725 H 93.47103779869724 51.700925697237466 61.65939911718739 H 0.0 **** 0.06
36726 C 9.525063302196429 3.765299737967297 89.92894743371043 C 0.0 **** -0.24
36727 H 9.292909539359101 3.2424766147280195 89.00101291331491 H 0.0 **** 0.06
36728 H 8.706214034643295 4.440417948672433 90.17900973889067 H 0.0 **** 0.06
36729 H 10.442708284185926 4.339604672986525 89.80158423225761 H 0.0 **** 0.06
36730 H 9.65783187081766 3.0402239429301403 90.73129674985073 H 0.0 **** 0.06
36731 C 117.00896317209146 42.8428202104638 117.46811739246999 C 0.0 **** -0.24
36732 H 117.83216585491292 42.12783866404669 117.47849107759816 H 0.0 **** 0.06
36733 H 117.02613836260676 43.428659132733 118.38769700124718 H 0.0 **** 0.06
36734 H 116.0633639710453 42.30596845323146 117.39550758808556 H 0.0 **** 0.06
36735 H 117.11673446153085 43.50694947210218 116.61091291849945 H 0.0 **** 0.06
36736 C 123.98917198974931 123.36382419419829 5.164892482193409 C 0.0 **** -0.24
36737 H 124.97169400177248 122.94250962184401 4.949642823225815 H 0.0 **** 0.06
36738 H 123.78202087354956 123.27297730946981 6.231470249699214 H 0.0 **** 0.06
36739 H 123.23120197503823 122.82306142966087 4.599525433858076 H 0.0 **** 0.06
36740 H 123.97457820951726 124.41560729373873 4.8798360361889195 H 0.0 **** 0.06
36741 C 154.55934441797712 58.15449650892634 24.616010982161214 C 0.0 **** -0.24
36742 H 155.11133320961235 58.682530899796504 23.83812221916918 H 0.0 **** 0.06
36743 H 155.25584217916034 57.78453824456338 25.368305207748904 H 0.0 **** 0.06
36744 H 154.02130502248238 57.315456589802366 24.17376047868777 H 0.0 **** 0.06
36745 H 153.84808789938984 58.83700077804406 25.082451737670993 H 0.0 **** 0.06
36746 C 75.58211481626297 92.15300517603185 148.05491828332845 C 0.0 **** -0.24
36747 H 75.41932583771168 91.21110673673593 147.53146062343023 H 0.0 **** 0.06
36748 H 74.95552855100978 92.92754827936915 147.61251067298082 H 0.0 **** 0.06
36749 H 76.6302453550985 92.43927016891348 147.97005620704476 H 0.0 **** 0.06
36750 H 75.32324361596304 92.03237387020505 149.10706782601937 H 0.0 **** 0.06
36751 C 98.79427810325836 105.9836449423081 42.557154475176745 C 0.0 **** -0.24
36752 H 99.02333449234851 106.53092351068665 41.64308600017017 H 0.0 **** 0.06
36753 H 98.18799993419478 106.60813009689127 43.21269006122273 H 0.0 **** 0.06
36754 H 99.72213458879108 105.71782459187875 43.0633863704728 H 0.0 **** 0.06
36755 H 98.2433806753813 105.07611930391357 42.308260674948684 H 0.0 **** 0.06
36756 C 74.8494300572607 15.76697675160505 148.31431319158352 C 0.0 **** -0.24
36757 H 74.40873848831957 16.764268085530986 148.33516568308937 H 0.0 **** 0.06
36758 H 74.08326418361689 15.037363086046412 148.05092065618635 H 0.0 **** 0.06
36759 H 75.25534258243194 15.529516895077407 149.29740712401258 H 0.0 **** 0.06
36760 H 75.64890609931687 15.738369662901533 147.57425742658828 H 0.0 **** 0.06
36761 C 146.7291739513856 82.60537543407949 69.18696622241106 C 0.0 **** -0.24
36762 H 147.10126454874614 82.51024342995267 70.20681686334007 H 0.0 **** 0.06
36763 H 146.30591254524495 83.6002805177477 69.04612399074585 H 0.0 **** 0.06
36764 H 145.958673001526 81.85427021705692 69.0099658634989 H 0.0 **** 0.06
36765 H 147.54979084331643 82.45726126567752 68.48572023466295 H 0.0 **** 0.06
36766 C 17.859150846757053 63.761679956201704 80.21414728192606 C 0.0 **** -0.24
36767 H 17.75996043748836 64.47169434016212 79.39257396290482 H 0.0 **** 0.06
36768 H 18.479564580066494 62.92330541449172 79.89669524289616 H 0.0 **** 0.06
36769 H 16.87306929098272 63.396602311623326 80.49930916595392 H 0.0 **** 0.06
36770 H 18.325237242347647 64.25596836745223 81.06634695641132 H 0.0 **** 0.06
36771 C 106.3500114898313 84.54041500614703 26.204454082750942 C 0.0 **** -0.24
36772 H 106.59695006640237 83.54702492466643 25.828185056766472 H 0.0 **** 0.06
36773 H 107.24653763818034 85.1601870240346 26.210142777069763 H 0.0 **** 0.06
36774 H 105.95842212994722 84.45685651962823 27.21757380283745 H 0.0 **** 0.06
36775 H 105.59785935148292 84.99527589651193 25.560027530295997 H 0.0 **** 0.06
36776 C 158.54028319945704 31.48025499216982 77.11858062667567 C 0.0 **** -0.24
36777 H 158.10567690679898 30.49408105845322 77.28579377618297 H 0.0 **** 0.06
36778 H 159.55919917736725 31.368698181931904 76.74569698332249 H 0.0 **** 0.06
36779 H 158.55506099349768 32.034271329636766 78.05735875873604 H 0.0 **** 0.06
36780 H 157.94191376401065 32.020801551537716 76.38614342834755 H 0.0 **** 0.06
36781 C 80.22492360797393 70.48098102254193 132.91353739585776 C 0.0 **** -0.24
36782 H 79.88631380231189 69.50983769698394 132.55304761046182 H 0.0 **** 0.06
36783 H 79.36091910076908 71.10890753025048 133.13214751216555 H 0.0 **** 0.06
36784 H 80.83822769646139 70.9585672156119 132.15039105701086 H 0.0 **** 0.06
36785 H 80.81360819485766 70.34527821888065 133.821361769051 H 0.0 **** 0.06
36786 C 108.67127202583731 109.0915602014669 105.32896799124762 C 0.0 **** -0.24
36787 H 109.4681600971621 109.73757610426196 105.69672157201279 H 0.0 **** 0.06
36788 H 109.0995986694439 108.3007024758179 104.71207477394518 H 0.0 **** 0.06
36789 H 107.97328469086293 109.67972906845392 104.73396472106288 H 0.0 **** 0.06
36790 H 108.14416343538724 108.64840660199025 106.17450942089181 H 0.0 **** 0.06
36791 C 122.14672897656209 59.472579269031826 51.55490642178428 C 0.0 **** -0.24
36792 H 121.92550588889321 60.38855535755363 52.102752208647814 H 0.0 **** 0.06
36793 H 123.22022244167948 59.285598750183965 51.57737672141137 H 0.0 **** 0.06
36794 H 121.8179632217186 59.57980759948822 50.52049834745149 H 0.0 **** 0.06
36795 H 121.62173910381264 58.63664556552669 52.0176907634025 H 0.0 **** 0.06
36796 C 135.48794232054865 154.95662669239218 98.28397730896097 C 0.0 **** -0.24
36797 H 135.63863950971813 155.76580121749942 98.99821941517848 H 0.0 **** 0.06
36798 H 135.0871772669053 155.36286930389772 97.35470006213347 H 0.0 **** 0.06
36799 H 134.78585580686223 154.23310449470566 98.69741169262386 H 0.0 **** 0.06
36800 H 136.4405094213425 154.466129667302 98.0846423375956 H 0.0 **** 0.06
36801 C 112.87742400665456 32.429437468713786 97.13616111397712 C 0.0 **** -0.24
36802 H 113.47214468445546 32.40129021761885 98.04989025453307 H 0.0 **** 0.06
36803 H 112.96668901351103 33.412946413605596 96.6753750963149 H 0.0 **** 0.06
36804 H 111.83256406989469 32.233956306076294 97.37721024161891 H 0.0 **** 0.06
36805 H 113.23916914737012 31.66925602342232 96.44420630168838 H 0.0 **** 0.06
36806 C 54.26455937072308 99.51393488854515 14.646471142302218 C 0.0 **** -0.24
36807 H 54.53630367824829 100.37818605676097 15.252145799874903 H 0.0 **** 0.06
36808 H 53.54515102016961 98.90135857125057 15.190383591827356 H 0.0 **** 0.06
36809 H 55.156919341221865 98.92511706141394 14.43325736085562 H 0.0 **** 0.06
36810 H 53.82054353462752 99.85165086217071 13.709640454798887 H 0.0 **** 0.06
36811 C 130.04441766557358 29.32871577036552 0.8951217029189706 C 0.0 **** -0.24
36812 H 130.41864905655206 28.332796944445185 0.6597339585279656 H 0.0 **** 0.06
36813 H 129.89758073606765 29.88935980169456 -0.028838841127139858 H 0.0 **** 0.06
36814 H 130.76675097179577 29.848721286971042 1.5250714950954603 H 0.0 **** 0.06
36815 H 129.0946858002543 29.244941306349233 1.424227651693883 H 0.0 **** 0.06
36816 C 67.48183904358689 121.95338352194028 97.11557199315797 C 0.0 **** -0.24
36817 H 66.76538961647586 121.37917820683671 97.7042819177685 H 0.0 **** 0.06
36818 H 67.2859621679871 121.79749424476708 96.05429508998742 H 0.0 **** 0.06
36819 H 68.49307385566048 121.6223400078519 97.35140073068601 H 0.0 **** 0.06
36820 H 67.38150283591965 123.01254902175899 97.35257609514093 H 0.0 **** 0.06
36821 C 68.11488910571376 137.36509288016157 100.30221823634804 C 0.0 **** -0.24
36822 H 68.64301701972201 137.0784629408067 101.21165214903033 H 0.0 **** 0.06
36823 H 68.8367229447552 137.66176959594512 99.54135248782035 H 0.0 **** 0.06
36824 H 67.44809964284707 138.19950944457725 100.51757524009133 H 0.0 **** 0.06
36825 H 67.53142212717788 136.51783810846607 99.93974956231443 H 0.0 **** 0.06
36826 C 89.47747699044241 104.76129536310498 107.23715303582074 C 0.0 **** -0.24
36827 H 89.02245091905006 103.8971278912851 107.71944719999922 H 0.0 **** 0.06
36828 H 89.9214522116484 104.45612220900122 106.28937182799643 H 0.0 **** 0.06
36829 H 90.2517888925985 105.17297975461136 107.88512982588662 H 0.0 **** 0.06
36830 H 88.71570800140208 105.51969346589581 107.05513601561262 H 0.0 **** 0.06
36831 C 48.826086853910255 78.70840445706334 75.52187023601141 C 0.0 **** -0.24
36832 H 48.3517719752698 77.78674390818064 75.85801464549905 H 0.0 **** 0.06
36833 H 49.463371427701304 79.09942894608311 76.31456062664623 H 0.0 **** 0.06
36834 H 48.05810182719347 79.44311251249547 75.27722770391176 H 0.0 **** 0.06
36835 H 49.42907639396179 78.50507513013139 74.63709080282098 H 0.0 **** 0.06
36836 C 10.538608312544632 36.02853999994183 159.44478263623597 C 0.0 **** -0.24
36837 H 10.885893924971406 35.06217625253137 159.80891809945308 H 0.0 **** 0.06
36838 H 9.47688628155305 36.14090571855719 159.66880091517302 H 0.0 **** 0.06
36839 H 10.690529367262194 36.08690279623323 158.36682593749637 H 0.0 **** 0.06
36840 H 11.100046376453406 36.82467543262851 159.93381794382674 H 0.0 **** 0.06
36841 C 40.91336113108673 49.304051856697725 28.762569027771598 C 0.0 **** -0.24
36842 H 41.93079202570641 48.91588800567135 28.810245600312605 H 0.0 **** 0.06
36843 H 40.853243683103415 50.06902266801548 27.988088930138304 H 0.0 **** 0.06
36844 H 40.64539566817115 49.73897423860623 29.725380475711184 H 0.0 **** 0.06
36845 H 40.226122925868765 48.49200698846727 28.525890710343752 H 0.0 **** 0.06
36846 C 63.17645072083769 23.2286303847024 160.39483106328396 C 0.0 **** -0.24
36847 H 62.586465070092004 23.479553051410107 159.5128193683817 H 0.0 **** 0.06
36848 H 62.98538598790299 22.193595761567792 160.67799258794395 H 0.0 **** 0.06
36849 H 62.89997339573216 23.88770404057786 161.21713211969973 H 0.0 **** 0.06
36850 H 64.23624937566825 23.35475025409471 160.1694635877684 H 0.0 **** 0.06
36851 C 99.34322729799703 116.4628605088725 57.84212106631975 C 0.0 **** -0.24
36852 H 100.26939400726587 117.03193144158655 57.911101529212374 H 0.0 **** 0.06
36853 H 99.5725273230872 115.42407260442246 57.60225636087881 H 0.0 **** 0.06
36854 H 98.71423253064287 116.887001078288 57.060131818456966 H 0.0 **** 0.06
36855 H 98.81677186988162 116.50849991005913 58.79599244840233 H 0.0 **** 0.06
36856 C 104.04891398154604 121.42058355327293 35.45200302704109 C 0.0 **** -0.24
36857 H 103.16073870296788 120.8313148039118 35.680607224337805 H 0.0 **** 0.06
36858 H 104.6089235278505 120.9358537765433 34.65211227421254 H 0.0 **** 0.06
36859 H 104.6744124331916 121.4947036733358 36.34102424190499 H 0.0 **** 0.06
36860 H 103.7492295734348 122.41872868548549 35.133586023532544 H 0.0 **** 0.06
36861 C 140.11986600406456 76.65048349776526 68.10167656054533 C 0.0 **** -0.24
36862 H 140.8072293780674 76.31522285781263 67.32537653258667 H 0.0 **** 0.06
36863 H 139.6093539597733 77.55416800981831 67.77005842901313 H 0.0 **** 0.06
36864 H 140.67754419022222 76.86105655565574 69.01342150256349 H 0.0 **** 0.06
36865 H 139.38537185318629 75.86911783928213 68.29722683682627 H 0.0 **** 0.06
36866 C 60.431676047663686 43.74336304210934 18.073993273509302 C 0.0 **** -0.24
36867 H 60.6993662194583 42.81317832656707 18.576308171353105 H 0.0 **** 0.06
36868 H 59.37345990796992 43.72252061518738 17.812738487633425 H 0.0 **** 0.06
36869 H 61.0280481643408 43.85129150831378 17.16832137714087 H 0.0 **** 0.06
36870 H 60.62563195813625 44.583565759537464 18.739859866144457 H 0.0 **** 0.06
36871 C 125.92174813862528 28.9385027269567 106.91393293040812 C 0.0 **** -0.24
36872 H 125.84918349943484 28.766451189255662 107.98818267832144 H 0.0 **** 0.06
36873 H 125.59854153395497 28.043849694640272 106.38064564069339 H 0.0 **** 0.06
36874 H 126.9546273647129 29.164816036378994 106.65188597914698 H 0.0 **** 0.06
36875 H 125.28326649391136 29.777252476897218 106.63774118122456 H 0.0 **** 0.06
36876 C 15.013688766906 129.64800495656175 13.013594350041274 C 0.0 **** -0.24
36877 H 14.690650912420125 128.70816295595807 13.46070104652523 H 0.0 **** 0.06
36878 H 16.091865178590126 129.62411431088208 12.856019888017272 H 0.0 **** 0.06
36879 H 14.76250864005241 130.47207722056322 13.68145534395191 H 0.0 **** 0.06
36880 H 14.509581522719287 129.78841298266934 12.05739231582379 H 0.0 **** 0.06
36881 C 32.49774364872758 15.772019844665536 86.560767322818 C 0.0 **** -0.24
36882 H 32.55478254665553 16.784653887858667 86.16004204336016 H 0.0 **** 0.06
36883 H 33.50305808054344 15.358409085095651 86.64736941703316 H 0.0 **** 0.06
36884 H 31.905709017582836 15.149593240898781 85.88955574313624 H 0.0 **** 0.06
36885 H 32.027403419241466 15.795917864654598 87.54370313181018 H 0.0 **** 0.06
36886 C 11.572504839573355 107.649531365748 73.65059787725762 C 0.0 **** -0.24
36887 H 10.656247405314666 107.67017648570709 73.05957589453241 H 0.0 **** 0.06
36888 H 11.477870288295598 106.90347703462373 74.44032512537225 H 0.0 **** 0.06
36889 H 11.74079610386972 108.63044732931291 74.09456607917917 H 0.0 **** 0.06
36890 H 12.413361977312107 107.39228304374305 73.00653621207714 H 0.0 **** 0.06
36891 C 91.31092165983156 55.91070505260711 44.70717067678804 C 0.0 **** -0.24
36892 H 91.40250295481005 55.61557239639933 43.6614582570474 H 0.0 **** 0.06
36893 H 91.37690005866155 55.02648572373826 45.341445772714124 H 0.0 **** 0.06
36894 H 90.34923677009729 56.39989887276792 44.863511489849586 H 0.0 **** 0.06
36895 H 92.11541993266252 56.60209100395653 44.96073308362794 H 0.0 **** 0.06
36896 C 96.8513772885808 69.32577381728323 136.1920501189515 C 0.0 **** -0.24
36897 H 96.78042194460522 69.94187751069728 137.08857755434363 H 0.0 **** 0.06
36898 H 96.88816207699244 68.2743334991323 136.47568715691872 H 0.0 **** 0.06
36899 H 97.75676774320675 69.58715030553573 135.6437761649665 H 0.0 **** 0.06
36900 H 95.98040746325375 69.50200212700545 135.56105012435032 H 0.0 **** 0.06
36901 C 66.9038837221441 43.85651539469268 0.6340328263962647 C 0.0 **** -0.24
36902 H 67.98991632368582 43.790292315199 0.5617308378691064 H 0.0 **** 0.06
36903 H 66.46442803506896 42.88690472259901 0.4010013188661503 H 0.0 **** 0.06
36904 H 66.5385139371811 44.600798793734384 -0.07300605199793608 H 0.0 **** 0.06
36905 H 66.62500668707901 44.149550190419745 1.6457991234691178 H 0.0 **** 0.06
36906 C 34.548258923894 15.940451122325697 144.5498939404075 C 0.0 **** -0.24
36907 H 35.40903925159361 15.286470622184247 144.68476628823336 H 0.0 **** 0.06
36908 H 34.34778968682865 16.06116092787598 143.48512349773293 H 0.0 **** 0.06
36909 H 34.758154071926754 16.913260578524522 144.99377187941957 H 0.0 **** 0.06
36910 H 33.677937196916005 15.498876713907556 145.0349959702105 H 0.0 **** 0.06
36911 C 46.158867216240424 110.57818711971038 112.26504042731224 C 0.0 **** -0.24
36912 H 46.741250237716926 111.41024458902424 112.66183289833819 H 0.0 **** 0.06
36913 H 45.529955296782475 110.9315890910712 111.44818751085612 H 0.0 **** 0.06
36914 H 45.53131217736728 110.16573258763879 113.05539149048371 H 0.0 **** 0.06
36915 H 46.83381179444041 109.8059293922839 111.89752492909685 H 0.0 **** 0.06
36916 C 96.74052817181538 85.2216887710997 149.62031673759904 C 0.0 **** -0.24
36917 H 97.05169751269182 84.83200962752409 148.65130659893734 H 0.0 **** 0.06
36918 H 97.32736757239175 86.10964728184584 149.8595386359678 H 0.0 **** 0.06
36919 H 96.9009987772155 84.46290712567942 150.38642212513483 H 0.0 **** 0.06
36920 H 95.6834839419182 85.48409350850291 149.5845663968256 H 0.0 **** 0.06
36921 C 159.48674751953627 102.5277539883524 160.73318509567792 C 0.0 **** -0.24
36922 H 159.26686761607957 102.00009409847218 161.66141229464097 H 0.0 **** 0.06
36923 H 158.95402767068015 103.47959803347572 160.72258382871894 H 0.0 **** 0.06
36924 H 159.16637557648326 101.92163249936735 159.88596115492788 H 0.0 **** 0.06
36925 H 160.55910015247972 102.7105905623628 160.66473458579895 H 0.0 **** 0.06
36926 C 13.903325258305621 151.8285729904116 101.53301434835441 C 0.0 **** -0.24
36927 H 14.017524047754698 152.5384480738632 102.35281303486758 H 0.0 **** 0.06
36928 H 13.216394957029088 151.03580824849263 101.83182988923724 H 0.0 **** 0.06
36929 H 14.8738205153617 151.3963215800847 101.28915469147731 H 0.0 **** 0.06
36930 H 13.505831054691185 152.3445858396776 100.65866889433173 H 0.0 **** 0.06
36931 C 11.276628281164278 67.22732048629997 23.07835609351912 C 0.0 **** -0.24
36932 H 10.198098895755038 67.21662045603678 23.237408745920845 H 0.0 **** 0.06
36933 H 11.690471230889386 68.16140121193703 23.459333903176372 H 0.0 **** 0.06
36934 H 11.487581808206727 67.1445330516402 22.011959488254007 H 0.0 **** 0.06
36935 H 11.729506539825763 66.38783932164681 23.604540918984213 H 0.0 **** 0.06
36936 C 91.92527221823731 3.004313847591561 54.57950039532585 C 0.0 **** -0.24
36937 H 92.78517748076113 2.5146540820610426 55.03693358156778 H 0.0 **** 0.06
36938 H 91.37219287395266 2.283009124931368 53.9788136560897 H 0.0 **** 0.06
36939 H 92.26875660170816 3.819908080239202 53.94270733682396 H 0.0 **** 0.06
36940 H 91.27697599290407 3.4024644757428177 55.361034772606274 H 0.0 **** 0.06
36941 C 108.89974743279629 142.17725866253102 55.78620913759622 C 0.0 **** -0.24
36942 H 108.65511186781671 141.1361316489 55.57755196797501 H 0.0 **** 0.06
36943 H 108.85806294943913 142.75298704120945 54.8609166800955 H 0.0 **** 0.06
36944 H 109.90414525616904 142.23737739806487 56.20612415964041 H 0.0 **** 0.06
36945 H 108.18259498748074 142.58276697119862 56.49994104760731 H 0.0 **** 0.06
36946 C 78.22492621235115 34.70132885155664 97.9022747769755 C 0.0 **** -0.24
36947 H 77.44179739126376 35.44854384820826 97.77467443115444 H 0.0 **** 0.06
36948 H 79.19762174647273 35.16254762161796 97.72999154160277 H 0.0 **** 0.06
36949 H 78.07487316697741 33.892669690800886 97.18604273259467 H 0.0 **** 0.06
36950 H 78.18527771483231 34.302036041426845 98.91526790427312 H 0.0 **** 0.06
36951 C 25.85721791191314 127.56835552728222 134.6307738453892 C 0.0 **** -0.24
36952 H 26.016302767053205 128.5737315519029 134.24347440934685 H 0.0 **** 0.06
36953 H 24.966970837121956 127.55761888551734 135.2602138733682 H 0.0 **** 0.06
36954 H 26.722562735421363 127.26464493019387 135.22069171645717 H 0.0 **** 0.06
36955 H 25.723343048647983 126.87485736870204 133.8002332396569 H 0.0 **** 0.06
36956 C 96.32917598292416 157.55086129579075 59.811444039476754 C 0.0 **** -0.24
36957 H 97.19535524228601 157.21088534974493 60.37872235667993 H 0.0 **** 0.06
36958 H 95.83430376317197 156.693585453057 59.355098259858835 H 0.0 **** 0.06
36959 H 96.6528991596891 158.24093678085052 59.03283119627605 H 0.0 **** 0.06
36960 H 95.63357851054056 158.05853868068627 60.480318999283384 H 0.0 **** 0.06
36961 C 77.52276706556985 46.84429935244867 49.375260627062175 C 0.0 **** -0.24
36962 H 76.58994908195994 47.19911489566846 49.81268190441615 H 0.0 **** 0.06
36963 H 77.59184650368182 45.76231983412512 49.4964681790309 H 0.0 **** 0.06
36964 H 78.36386794768639 47.32033712337822 49.87845857774343 H 0.0 **** 0.06
36965 H 77.54466827547554 47.093768056912225 48.31508021034385 H 0.0 **** 0.06
36966 C 2.6159440627926642 119.85940897083844 32.16032717261237 C 0.0 **** -0.24
36967 H 2.6603657175035096 119.0141438746495 32.84637925506519 H 0.0 **** 0.06
36968 H 1.8019447746510195 120.5228890558891 32.452478149135544 H 0.0 **** 0.06
36969 H 2.4433155370649047 119.4960892180184 31.147022174148475 H 0.0 **** 0.06
36970 H 3.5600457058844768 120.40407491339155 32.194326965406816 H 0.0 **** 0.06
36971 C 76.21174456219993 63.739263989543474 105.0127290174234 C 0.0 **** -0.24
36972 H 75.86812212922464 63.41798747837856 105.99562975570242 H 0.0 **** 0.06
36973 H 77.28274853717613 63.55244178797787 104.9234773435324 H 0.0 **** 0.06
36974 H 76.0173882481833 64.80432816471937 104.89054575113812 H 0.0 **** 0.06
36975 H 75.68035230991643 63.18184397485976 104.24161939787518 H 0.0 **** 0.06
36976 C 159.49680145332985 122.3827355449202 46.4906328354747 C 0.0 **** -0.24
36977 H 160.03456349068762 123.14991212098656 47.04798098228305 H 0.0 **** 0.06
36978 H 158.70759626065475 121.96513230111069 47.11621141976238 H 0.0 **** 0.06
36979 H 160.1889904417058 121.5920760018534 46.20178212111762 H 0.0 **** 0.06
36980 H 159.0570483000598 122.82602808442385 45.59694007010563 H 0.0 **** 0.06
36981 C 56.75331238267252 158.13173471182438 85.60173490542597 C 0.0 **** -0.24
36982 H 56.56426687662844 157.0999586010411 85.8991281284566 H 0.0 **** 0.06
36983 H 57.78163066935079 158.39721302745514 85.84760200192005 H 0.0 **** 0.06
36984 H 56.06900250506547 158.7932366171137 86.13205372128665 H 0.0 **** 0.06
36985 H 56.597625991932844 158.23385402692375 84.52759652545785 H 0.0 **** 0.06
36986 C 15.082208887747434 68.71050746760024 160.22768578364693 C 0.0 **** -0.24
36987 H 16.159091936377138 68.54974123925525 160.26985154133902 H 0.0 **** 0.06
36988 H 14.611039679935764 68.24912115154197 161.0961114449454 H 0.0 **** 0.06
36989 H 14.684096027504864 68.2617320495003 159.3173058365304 H 0.0 **** 0.06
36990 H 14.87409074552155 69.78039085497161 160.22619310251554 H 0.0 **** 0.06
36991 C 20.880428332929036 160.1083332451946 143.93871223678872 C 0.0 **** -0.24
36992 H 21.7068737898122 159.64509362418153 144.47737985794137 H 0.0 **** 0.06
36993 H 20.88888056480473 159.77149352548426 142.90251901515848 H 0.0 **** 0.06
36994 H 20.988478803661316 161.19235233764198 143.96975330371652 H 0.0 **** 0.06
36995 H 19.93797024544274 159.82291168044657 144.40594786962112 H 0.0 **** 0.06
36996 C 44.19643625164832 111.24409187325335 97.57299179749171 C 0.0 **** -0.24
36997 H 43.605327651764554 111.65244402512792 98.39302473255125 H 0.0 **** 0.06
36998 H 44.719752554092324 110.34979504489905 97.9132962589506 H 0.0 **** 0.06
36999 H 44.921245346872254 111.98683511442837 97.24269791479335 H 0.0 **** 0.06
37000 H 43.53647162946808 110.98506402379309 96.744776160535 H 0.0 **** 0.06
37001 C 130.4442854256687 62.995259509404576 60.275311072164556 C 0.0 **** -0.24
37002 H 129.75905187371302 62.58349217531534 61.0170964422026 H 0.0 **** 0.06
37003 H 129.8935362558033 63.644789349112614 59.59388812065043 H 0.0 **** 0.06
37004 H 130.90133116364296 62.18176003905552 59.71291474693297 H 0.0 **** 0.06
37005 H 131.22113684724235 63.57150612671006 60.77852432841212 H 0.0 **** 0.06
37006 C 104.10586321821049 6.9010684823781006 18.77824354660123 C 0.0 **** -0.24
37007 H 103.57738173787308 5.967155680271986 18.96822260620138 H 0.0 **** 0.06
37008 H 103.39299281598969 7.6643590659202445 18.464351578685296 H 0.0 **** 0.06
37009 H 104.84364526752506 6.747629366091935 17.99025372300855 H 0.0 **** 0.06
37010 H 104.60912793494782 7.225437141490303 19.689244898514346 H 0.0 **** 0.06
37011 C 87.23427358623547 162.44088701520076 32.086461083630866 C 0.0 **** -0.24
37012 H 87.19595158621217 161.56651940630235 31.436413717500955 H 0.0 **** 0.06
37013 H 86.22850296074449 162.6828337188734 32.42894185152045 H 0.0 **** 0.06
37014 H 87.6427100842613 163.28622807640178 31.531930653361684 H 0.0 **** 0.06
37015 H 87.86965780681436 162.2282266548354 32.94558173103326 H 0.0 **** 0.06
37016 C 36.287891219693805 154.0092423521808 116.97114177622896 C 0.0 **** -0.24
37017 H 36.82049400288949 154.3967100795949 117.83976534115158 H 0.0 **** 0.06
37018 H 36.928451166131595 154.08052300005517 116.09151690651336 H 0.0 **** 0.06
37019 H 35.38235980534952 154.59421107407215 116.80949303946136 H 0.0 **** 0.06
37020 H 36.02189196582988 152.966887150364 117.14309772310946 H 0.0 **** 0.06
37021 C 40.412729775223056 126.23650462479424 135.81831021750293 C 0.0 **** -0.24
37022 H 39.9851235576003 127.18947917368638 136.12839449521226 H 0.0 **** 0.06
37023 H 39.68421022839556 125.68792283288204 135.2210178656335 H 0.0 **** 0.06
37024 H 40.673694700354815 125.651260082562 136.70130062257516 H 0.0 **** 0.06
37025 H 41.308756008832546 126.41689560581898 135.22453758882872 H 0.0 **** 0.06
37026 C 132.56066378906323 46.93633536899516 76.68509000812418 C 0.0 **** -0.24
37027 H 131.8660241037013 47.768063495473626 76.80063165983927 H 0.0 **** 0.06
37028 H 132.26759253490545 46.33498577316891 75.82358678252837 H 0.0 **** 0.06
37029 H 132.5398653833504 46.31865135190242 77.5836303659487 H 0.0 **** 0.06
37030 H 133.56915705993595 47.32266628014223 76.53353592168344 H 0.0 **** 0.06
37031 C 23.41473567265566 114.64208727109053 35.518949456366556 C 0.0 **** -0.24
37032 H 23.14089668220545 113.77748814407542 34.914298802372855 H 0.0 **** 0.06
37033 H 23.517475588318753 115.51634919017548 34.87693354422737 H 0.0 **** 0.06
37034 H 24.362358213777114 114.4475678585554 36.02218260592775 H 0.0 **** 0.06
37035 H 22.639111854389867 114.8258591279064 36.26226462938479 H 0.0 **** 0.06
37036 C 55.220317218279604 47.187316650559964 50.38926528594068 C 0.0 **** -0.24
37037 H 55.81640233485197 47.71437160951362 49.64490419610922 H 0.0 **** 0.06
37038 H 54.85274496702782 46.2524745787929 49.9642866471127 H 0.0 **** 0.06
37039 H 54.375603697998244 47.809241461558514 50.685423102274555 H 0.0 **** 0.06
37040 H 55.83702394654006 46.97193807639076 51.261995338811715 H 0.0 **** 0.06
37041 C 23.581362415398445 51.539845803229596 20.04162772060829 C 0.0 **** -0.24
37042 H 22.771347369231506 51.41337651697306 19.32377607839109 H 0.0 **** 0.06
37043 H 23.343036400379958 52.361840132728744 20.717913119731207 H 0.0 **** 0.06
37044 H 24.50679270911857 51.762960453003075 19.509830289415845 H 0.0 **** 0.06
37045 H 23.704995385395478 50.620517773035516 20.614923236167044 H 0.0 **** 0.06
37046 C 154.6086185628744 42.377657243434555 51.025507040654475 C 0.0 **** -0.24
37047 H 155.03649795463406 43.37775774363905 51.09197552464303 H 0.0 **** 0.06
37048 H 154.5402106963989 42.081123159954984 49.97836818285248 H 0.0 **** 0.06
37049 H 153.61393541918014 42.37751727097498 51.46969420565733 H 0.0 **** 0.06
37050 H 155.24599437720786 41.67343585919974 51.56116289976296 H 0.0 **** 0.06
37051 C 37.47411851483287 63.087611376053104 126.03764161570447 C 0.0 **** -0.24
37052 H 36.43854639968731 63.367421594582254 126.23477744710334 H 0.0 **** 0.06
37053 H 38.003453670927 63.93704848417292 125.60756057016891 H 0.0 **** 0.06
37054 H 37.49667539320279 62.25177668592531 125.33744132053135 H 0.0 **** 0.06
37055 H 37.95424515614013 62.79305553076205 126.97052912337782 H 0.0 **** 0.06
37056 C 34.331075411554366 151.39127772871473 45.26824331768657 C 0.0 **** -0.24
37057 H 34.932597795809585 151.61480658758302 46.15018184836924 H 0.0 **** 0.06
37058 H 33.28306225115716 151.60473590307947 45.47966208264876 H 0.0 **** 0.06
37059 H 34.44289743660232 150.33821018068562 45.01118415564707 H 0.0 **** 0.06
37060 H 34.66699451867571 152.0064729752445 44.43452456026969 H 0.0 **** 0.06
37061 C 38.18909396244301 4.3271984204161384 9.612975166757167 C 0.0 **** -0.24
37062 H 37.70885380568282 4.424200083016544 8.63892848078018 H 0.0 **** 0.06
37063 H 38.59160021586999 5.29320818029062 9.916912165888021 H 0.0 **** 0.06
37064 H 38.998365605687226 3.5994006147751136 9.547464544814432 H 0.0 **** 0.06
37065 H 37.45715399019821 3.990873832126695 10.347328967703703 H 0.0 **** 0.06
37066 C 78.47408010179399 71.66379040663652 49.2634072303087 C 0.0 **** -0.24
37067 H 79.33287621240709 71.0054414015074 49.39668401860962 H 0.0 **** 0.06
37068 H 77.67257847879239 71.35464569015126 49.93525288685356 H 0.0 **** 0.06
37069 H 78.12673649924767 71.60349011874335 48.23210797902183 H 0.0 **** 0.06
37070 H 78.7632684079562 72.68980905542172 49.49103568534474 H 0.0 **** 0.06
37071 C 87.32481517772986 151.61218077990338 23.678064133236546 C 0.0 **** -0.24
37072 H 86.49644259264748 152.31570579617969 23.58739271589036 H 0.0 **** 0.06
37073 H 87.31951401832987 151.17245965582316 24.6752191234674 H 0.0 **** 0.06
37074 H 88.26562720282313 152.13677471093163 23.515852072302152 H 0.0 **** 0.06
37075 H 87.21465879379612 150.82457627757992 22.932669221863932 H 0.0 **** 0.06
37076 C 150.67412556456708 150.52773403346913 161.58683471734878 C 0.0 **** -0.24
37077 H 149.65545443986971 150.4240563552072 161.2101903213969 H 0.0 **** 0.06
37078 H 151.3809883882909 150.27421077721027 160.79633817443454 H 0.0 **** 0.06
37079 H 150.81756446372833 149.8573485326216 162.43381369944706 H 0.0 **** 0.06
37080 H 150.8395788229743 151.55728167139503 161.9057120672939 H 0.0 **** 0.06
37081 C 127.0602058910591 147.2614865206875 140.79251124694423 C 0.0 **** -0.24
37082 H 126.81164946007564 146.2110179422138 140.64092850920917 H 0.0 **** 0.06
37083 H 126.25825411680464 147.7474669326021 141.34882165266774 H 0.0 **** 0.06
37084 H 127.17981559996741 147.7495331432113 139.82576886293327 H 0.0 **** 0.06
37085 H 127.9900711999926 147.336851688872 141.3561915228522 H 0.0 **** 0.06
37086 C 41.33478310008758 160.26870700184708 128.902708671455 C 0.0 **** -0.24
37087 H 40.46678038200355 160.7410084699139 128.44391195496848 H 0.0 **** 0.06
37088 H 41.002811267474954 159.53681905254513 129.6394851681722 H 0.0 **** 0.06
37089 H 41.94476323762859 161.02711163338785 129.39313755790226 H 0.0 **** 0.06
37090 H 41.924777513243384 159.76988885154128 128.13430000477706 H 0.0 **** 0.06
37091 C 17.680021196056963 43.11944371033002 25.770705022731768 C 0.0 **** -0.24
37092 H 17.766767736340263 43.972611610266654 25.09824505090537 H 0.0 **** 0.06
37093 H 17.24889460510002 43.44593197373314 26.717969601832827 H 0.0 **** 0.06
37094 H 18.669075332073284 42.69559470577633 25.948499384469123 H 0.0 **** 0.06
37095 H 17.036580594917147 42.36402755605235 25.320185912675655 H 0.0 **** 0.06
37096 C 88.41965312773787 105.56139939338598 98.23432695627662 C 0.0 **** -0.24
37097 H 88.37125120791572 105.92411228574886 99.26128775462797 H 0.0 **** 0.06
37098 H 87.54299221367427 105.90581931810848 97.68556250850202 H 0.0 **** 0.06
37099 H 88.44392871049453 104.47112039436072 98.2348676592286 H 0.0 **** 0.06
37100 H 89.32224327712635 105.94417451375404 97.75685955706183 H 0.0 **** 0.06
37101 C 3.096115301375349 52.195564072102385 108.59098674550725 C 0.0 **** -0.24
37102 H 3.031666680457576 51.12245925268087 108.41436782953815 H 0.0 **** 0.06
37103 H 3.8867976039227514 52.619163867375065 107.97104514248073 H 0.0 **** 0.06
37104 H 3.319850584520111 52.37777228637354 109.64168390409682 H 0.0 **** 0.06
37105 H 2.145086414939655 52.66339487794434 108.33495496336388 H 0.0 **** 0.06
37106 C 115.42655387426146 42.1411143681333 96.53043073580292 C 0.0 **** -0.24
37107 H 116.3999084460666 42.617862830557954 96.41827186431736 H 0.0 **** 0.06
37108 H 115.11913787207538 42.18465540159757 97.57465743384793 H 0.0 **** 0.06
37109 H 115.4939639951736 41.099510888206225 96.21431689305713 H 0.0 **** 0.06
37110 H 114.69440080703546 42.66177670995303 95.91270305578334 H 0.0 **** 0.06
37111 C 43.92487548937456 37.839724078593264 86.03643513492867 C 0.0 **** -0.24
37112 H 42.858265983740154 37.89120624197831 86.25533833032263 H 0.0 **** 0.06
37113 H 44.110907221074314 38.249074402600925 85.04295972248215 H 0.0 **** 0.06
37114 H 44.25331189478365 36.80126289195687 86.07010598797001 H 0.0 **** 0.06
37115 H 44.475279988323365 38.41978514315046 86.77707735675064 H 0.0 **** 0.06
37116 C 68.78543994749722 84.03180024011093 51.2322346106545 C 0.0 **** -0.24
37117 H 69.2740376888703 83.06424207663378 51.3468308632478 H 0.0 **** 0.06
37118 H 69.2186394868979 84.74320404406149 51.93675409451281 H 0.0 **** 0.06
37119 H 67.71957357856388 83.92666941381924 51.43084277406109 H 0.0 **** 0.06
37120 H 68.93059391725313 84.39398050977178 50.2146587553746 H 0.0 **** 0.06
37121 C 85.77465090249565 25.967149239678008 163.01991169062322 C 0.0 **** -0.24
37122 H 85.70620796981747 26.89370326761724 162.45010115439004 H 0.0 **** 0.06
37123 H 85.49633336351607 26.157192318034845 164.05656150387944 H 0.0 **** 0.06
37124 H 86.7983092131543 25.592784771672655 162.98122310227922 H 0.0 **** 0.06
37125 H 85.10005796710567 25.226543715778917 162.59156060348585 H 0.0 **** 0.06
37126 C 93.80944964526788 83.17559148362562 121.59256834867631 C 0.0 **** -0.24
37127 H 93.99326082305012 82.83696574594211 120.57268554556538 H 0.0 **** 0.06
37128 H 93.08140760590292 82.51726569937273 122.06706473557563 H 0.0 **** 0.06
37129 H 93.42016377077195 84.19397423217814 121.57297321396959 H 0.0 **** 0.06
37130 H 94.74140120042652 83.15312127576223 122.15633710218538 H 0.0 **** 0.06
37131 C 56.208339059471996 17.05836718081207 78.60805787608274 C 0.0 **** -0.24
37132 H 55.15880417694589 16.825570464774387 78.42881204610191 H 0.0 **** 0.06
37133 H 56.288840724574925 17.75128648545649 79.44555185958914 H 0.0 **** 0.06
37134 H 56.63600052135271 17.51478732721779 77.71540218756354 H 0.0 **** 0.06
37135 H 56.74885555364649 16.141210792704783 78.84108989356956 H 0.0 **** 0.06
37136 C 94.77031871880305 67.17378784185331 32.456901012802916 C 0.0 **** -0.24
37137 H 94.36933362107291 67.24206862429156 31.445386031451562 H 0.0 **** 0.06
37138 H 95.65724414671527 67.80183383920152 32.5390189644645 H 0.0 **** 0.06
37139 H 95.03520269808634 66.13837947642206 32.67311127329083 H 0.0 **** 0.06
37140 H 94.01714002696748 67.51251102912555 33.16826330786597 H 0.0 **** 0.06
37141 C 156.0692899055478 33.559093313208194 121.25488651580787 C 0.0 **** -0.24
37142 H 155.47255843179943 34.391707079896705 121.62647862945289 H 0.0 **** 0.06
37143 H 157.11940811443407 33.730552389798305 121.49352309778371 H 0.0 **** 0.06
37144 H 155.9493522326192 33.48047456006309 120.17402809591002 H 0.0 **** 0.06
37145 H 155.7365969093622 32.63429006794773 121.72544699198662 H 0.0 **** 0.06
37146 C 92.55864335522406 148.71799045511113 36.6293313631526 C 0.0 **** -0.24
37147 H 93.36494791706671 148.24052580289424 37.186647551155744 H 0.0 **** 0.06
37148 H 91.96326086609069 147.95461271442628 36.12739510756916 H 0.0 **** 0.06
37149 H 92.9802893645315 149.39602493979672 35.88806170711602 H 0.0 **** 0.06
37150 H 91.92478284654014 149.2789980730042 37.316264527780106 H 0.0 **** 0.06
37151 C 119.52946726407512 110.77909785747721 96.96471586119347 C 0.0 **** -0.24
37152 H 120.37697371316767 111.38173383604749 97.29375020626227 H 0.0 **** 0.06
37153 H 119.41232383273751 110.87639839925407 95.88605055864524 H 0.0 **** 0.06
37154 H 118.62285213830057 111.1253531255594 97.46177439230985 H 0.0 **** 0.06
37155 H 119.70685520321248 109.73430791181784 97.21968515971432 H 0.0 **** 0.06
37156 C 6.9351837944343515 71.513614174639 34.103965454417406 C 0.0 **** -0.24
37157 H 7.439429406579421 72.21780507649396 33.44093269327884 H 0.0 **** 0.06
37158 H 7.612147087476984 70.69458235935707 34.34632145926771 H 0.0 **** 0.06
37159 H 6.049135002953022 71.11912788952264 33.60650594062862 H 0.0 **** 0.06
37160 H 6.640279885807104 72.0258636995639 35.02055424284457 H 0.0 **** 0.06
37161 C 94.45101120854466 95.63958590499476 79.78712479063813 C 0.0 **** -0.24
37162 H 93.52123534533622 96.16732433975437 79.57395383914584 H 0.0 **** 0.06
37163 H 95.26191970498269 96.08679070005064 79.2111689126098 H 0.0 **** 0.06
37164 H 94.34514204459435 94.59064054047303 79.51138726891315 H 0.0 **** 0.06
37165 H 94.67580596959782 95.71546263518815 80.85041348898153 H 0.0 **** 0.06
37166 C 150.9858711819554 61.56748397310747 33.82525969301844 C 0.0 **** -0.24
37167 H 150.06305054889657 62.10702592825652 33.61375698933989 H 0.0 **** 0.06
37168 H 151.21989507100267 60.906834029025504 32.99019003085158 H 0.0 **** 0.06
37169 H 150.86115584445054 60.97576812911237 34.73280987757312 H 0.0 **** 0.06
37170 H 151.7986466328512 62.27970186362771 33.96532603401312 H 0.0 **** 0.06
37171 C 79.18715382583606 161.45068182052538 151.33899843691577 C 0.0 **** -0.24
37172 H 78.96476143019333 160.81123520825759 150.4848652493858 H 0.0 **** 0.06
37173 H 78.32422328638286 162.0805608660858 151.55527864894196 H 0.0 **** 0.06
37174 H 80.04770072717469 162.0784812789163 151.10713482062715 H 0.0 **** 0.06
37175 H 79.412308230305 160.83140265273613 152.20653323370345 H 0.0 **** 0.06
37176 C 58.51983627524345 65.54540698588087 75.0861183042746 C 0.0 **** -0.24
37177 H 59.113504684377176 64.85712107048134 74.48416964597156 H 0.0 **** 0.06
37178 H 57.78942995193222 66.04694371148568 74.45081019938151 H 0.0 **** 0.06
37179 H 59.17638134877467 66.28754763579929 75.54068368866055 H 0.0 **** 0.06
37180 H 58.002292928133556 64.98938458991042 75.86811884651725 H 0.0 **** 0.06
37181 C 22.10838119331897 157.46268762223016 77.62169943481598 C 0.0 **** -0.24
37182 H 22.729654513335255 156.6193335826876 77.32202753194973 H 0.0 **** 0.06
37183 H 21.06885972450481 157.25560664114784 77.36788368815822 H 0.0 **** 0.06
37184 H 22.438834397670803 158.36049536644316 77.09937119553598 H 0.0 **** 0.06
37185 H 22.196604392250045 157.61484597191821 78.69674283672464 H 0.0 **** 0.06
37186 C 53.78961250666089 26.417047498410312 39.80599508819604 C 0.0 **** -0.24
37187 H 53.66744051801618 27.467399206178527 39.54010380581872 H 0.0 **** 0.06
37188 H 52.833442216554545 26.01367836978463 40.1411347815349 H 0.0 **** 0.06
37189 H 54.522932886329386 26.32869480940576 40.608715421827156 H 0.0 **** 0.06
37190 H 54.13521415724523 25.859615044893417 38.93582361504491 H 0.0 **** 0.06
37191 C 135.56819496837645 7.274793157872146 30.18848635583396 C 0.0 **** -0.24
37192 H 136.1420730902962 6.356998830017297 30.05787874456081 H 0.0 **** 0.06
37193 H 136.2509277614196 8.113753721024061 30.32053915589549 H 0.0 **** 0.06
37194 H 134.9295405171706 7.183054926293721 31.06734781394681 H 0.0 **** 0.06
37195 H 134.9498757208912 7.444115747449935 29.306361049603822 H 0.0 **** 0.06
37196 C 34.07134917624079 59.493168634897714 8.206089621293927 C 0.0 **** -0.24
37197 H 34.927628941839416 60.06599707084541 8.559557225351 H 0.0 **** 0.06
37198 H 33.15734667872805 60.06081710359102 8.382031432372486 H 0.0 **** 0.06
37199 H 34.02016381042601 58.5458046963046 8.743143152562396 H 0.0 **** 0.06
37200 H 34.17972493215778 59.30024678401112 7.137989550053135 H 0.0 **** 0.06
37201 C 151.15357327816878 36.025788611093105 120.12011950369708 C 0.0 **** -0.24
37202 H 150.60971270743448 36.94177230805553 119.89030351636825 H 0.0 **** 0.06
37203 H 151.20449819605426 35.39963885629868 119.22993752095806 H 0.0 **** 0.06
37204 H 150.6362916540295 35.48733003302408 120.91444937741284 H 0.0 **** 0.06
37205 H 152.16240875619064 36.274933657876204 120.44774207829482 H 0.0 **** 0.06
37206 C 104.382146062586 141.71480214812868 80.46355336314026 C 0.0 **** -0.24
37207 H 103.47619213535702 142.3139984679892 80.37380315358527 H 0.0 **** 0.06
37208 H 105.12801998271686 142.26683539140868 81.03479256678477 H 0.0 **** 0.06
37209 H 104.77303774139503 141.49516311735098 79.4698087976215 H 0.0 **** 0.06
37210 H 104.14911827821652 140.78084870255302 80.97652014326904 H 0.0 **** 0.06
37211 C 94.3003228813571 20.205800931497777 92.33706005050061 C 0.0 **** -0.24
37212 H 93.62967575233266 19.5033972667523 91.84098000640975 H 0.0 **** 0.06
37213 H 95.28989266715887 20.14366394151409 91.88421185100512 H 0.0 **** 0.06
37214 H 94.36709940140587 19.956701765869127 93.39568478599858 H 0.0 **** 0.06
37215 H 93.91170557029902 21.218551532577578 92.22544153517077 H 0.0 **** 0.06
37216 C 12.45375467847225 27.523405583773688 153.94355093286453 C 0.0 **** -0.24
37217 H 13.530436532927325 27.66017558301958 154.04523187077723 H 0.0 **** 0.06
37218 H 12.166377086490542 27.671012929120742 152.90189115771105 H 0.0 **** 0.06
37219 H 11.934395058177188 28.248464543313453 154.57039218400772 H 0.0 **** 0.06
37220 H 12.18453249536526 26.51435869324164 154.25611716957854 H 0.0 **** 0.06
37221 C 58.6926435812901 84.66400774777411 51.98334522840631 C 0.0 **** -0.24
37222 H 58.151799027831544 83.960454277673 51.35127362898521 H 0.0 **** 0.06
37223 H 58.615309015844616 84.35072008639514 53.02491956057166 H 0.0 **** 0.06
37224 H 58.262354272537436 85.65877399409591 51.87059745105839 H 0.0 **** 0.06
37225 H 59.74111487631632 84.68530577134308 51.687219961845415 H 0.0 **** 0.06
37226 C 45.0356868633871 84.11211474728918 144.56145707278327 C 0.0 **** -0.24
37227 H 45.589505074563846 85.05068258137993 144.53999396107523 H 0.0 **** 0.06
37228 H 45.59064614407745 83.35074379057085 144.0137826218716 H 0.0 **** 0.06
37229 H 44.059389151994836 84.25626843588674 144.0969622970232 H 0.0 **** 0.06
37230 H 44.90292699870193 83.79351330384546 145.5944859879179 H 0.0 **** 0.06
37231 C 3.61466863066056 38.9874030258018 145.8979692158719 C 0.0 **** -0.24
37232 H 3.82516800719867 40.01945957843091 146.17902997608562 H 0.0 **** 0.06
37233 H 4.465087146464839 38.57933471413537 145.35072476385088 H 0.0 **** 0.06
37234 H 2.7273745681671357 38.958028314749356 145.26458049942354 H 0.0 **** 0.06
37235 H 3.4406559994259283 38.39498884552307 146.7955386347864 H 0.0 **** 0.06
37236 C 13.263485445079134 31.577371532083802 136.29808197827538 C 0.0 **** -0.24
37237 H 13.908704909496336 31.97213040752051 137.0834291329628 H 0.0 **** 0.06
37238 H 13.126226992663746 30.506254332294255 136.44547909524258 H 0.0 **** 0.06
37239 H 13.723531182206074 31.75592303354297 135.3261955978308 H 0.0 **** 0.06
37240 H 12.295946853090058 32.07756132400496 136.33898549534456 H 0.0 **** 0.06
37241 C 141.33164881356103 140.25210745320945 77.01475845535333 C 0.0 **** -0.24
37242 H 141.05137150804126 140.64194074893967 76.03559476872466 H 0.0 **** 0.06
37243 H 140.8086771456705 140.81065216110838 77.79116833760169 H 0.0 **** 0.06
37244 H 142.40769782520076 140.35768094103145 77.15251772432978 H 0.0 **** 0.06
37245 H 141.05889125282903 139.19860194365384 77.07756222680126 H 0.0 **** 0.06
37246 C 155.83232703497416 94.74218037650553 131.58360450805543 C 0.0 **** -0.24
37247 H 155.6553303360767 93.68339643561893 131.77187713437928 H 0.0 **** 0.06
37248 H 156.76536786310305 94.8628378828785 131.0332133438373 H 0.0 **** 0.06
37249 H 155.89925964216775 95.2734011670552 132.53387520717524 H 0.0 **** 0.06
37250 H 155.0081768211271 95.14932456562113 130.9982030410281 H 0.0 **** 0.06
37251 C 131.9257564410643 61.99624163112041 31.322576451060627 C 0.0 **** -0.24
37252 H 132.4274993774987 62.91406408784481 31.629673878861865 H 0.0 **** 0.06
37253 H 131.4265619108862 62.15785315876688 30.36642613109069 H 0.0 **** 0.06
37254 H 131.18893222598075 61.71554426844821 32.07452584642468 H 0.0 **** 0.06
37255 H 132.66146940443448 61.19802002491393 31.218046088396903 H 0.0 **** 0.06
37256 C 52.80956255286999 27.30459921859387 98.24193303058911 C 0.0 **** -0.24
37257 H 52.07729832060902 26.977600114596086 98.97919112202615 H 0.0 **** 0.06
37258 H 53.778017525950204 26.858143915977017 98.4681950323411 H 0.0 **** 0.06
37259 H 52.89505765505747 28.391854228441247 98.27173326433106 H 0.0 **** 0.06
37260 H 52.48902484378402 26.99280637790028 97.24780594522716 H 0.0 **** 0.06
37261 C 52.20390983116795 157.97762860024983 108.69479125130204 C 0.0 **** -0.24
37262 H 51.33495764028601 157.4632919879176 108.28515632295606 H 0.0 **** 0.06
37263 H 52.017888904955555 159.0518199919505 108.70508395958609 H 0.0 **** 0.06
37264 H 53.07580123319707 157.76622729968258 108.0755726020574 H 0.0 **** 0.06
37265 H 52.386278709674 157.62987334013758 109.71135099452485 H 0.0 **** 0.06
37266 C 9.153042242713127 19.801581378796584 75.80108604109118 C 0.0 **** -0.24
37267 H 9.650132928975722 20.280405223618573 76.64461993234627 H 0.0 **** 0.06
37268 H 8.142059686055063 20.196671064720533 75.70388392247993 H 0.0 **** 0.06
37269 H 9.10948546758965 18.72505176787996 75.96904939398271 H 0.0 **** 0.06
37270 H 9.712364868994541 20.00376723534788 74.88734157376085 H 0.0 **** 0.06
37271 C 112.45790557933003 151.0048253597913 93.84527372951112 C 0.0 **** -0.24
37272 H 111.70451377756706 150.6147691579386 93.1606016759585 H 0.0 **** 0.06
37273 H 112.41542443421366 152.095142438251 93.84842843992908 H 0.0 **** 0.06
37274 H 113.44680485326876 150.68047232794333 93.5204426827654 H 0.0 **** 0.06
37275 H 112.26355199456066 150.63048026940598 94.85028183329564 H 0.0 **** 0.06
37276 C 136.29547488263822 105.05864348118644 60.510253918297764 C 0.0 **** -0.24
37277 H 136.63011153901462 104.25203602601593 59.85859484188708 H 0.0 **** 0.06
37278 H 137.11747337895483 105.7538464089192 60.68002202016223 H 0.0 **** 0.06
37279 H 135.96718860369464 104.64359787760796 61.463217256563496 H 0.0 **** 0.06
37280 H 135.46580945696562 105.5853361160722 60.03872554661015 H 0.0 **** 0.06
37281 C 96.45347423636838 90.8856957992655 133.52126528822328 C 0.0 **** -0.24
37282 H 95.61452848342734 91.57994481105814 133.55892379096008 H 0.0 **** 0.06
37283 H 96.07782856917716 89.86750205645795 133.41668655838055 H 0.0 **** 0.06
37284 H 97.03312789111695 90.96633545578077 134.4415363251495 H 0.0 **** 0.06
37285 H 97.087775695782 91.12865080849818 132.6694869476587 H 0.0 **** 0.06
37286 C 160.27885479025034 138.26839289366833 144.12457070025428 C 0.0 **** -0.24
37287 H 159.66100706571825 138.93032835329103 143.51649295909607 H 0.0 **** 0.06
37288 H 161.24326448008662 138.74241530027422 144.31101535057576 H 0.0 **** 0.06
37289 H 160.43106751070712 137.32768166620613 143.59611776192014 H 0.0 **** 0.06
37290 H 159.77876856011343 138.07576031505502 145.07345388169284 H 0.0 **** 0.06
37291 C 43.44038153106294 20.056260257749017 70.90715157947277 C 0.0 **** -0.24
37292 H 42.46232143633017 20.483312674775014 71.1316723553981 H 0.0 **** 0.06
37293 H 43.32522174443619 19.243431112102826 70.18982608033515 H 0.0 **** 0.06
37294 H 43.88848101781548 19.672339831245573 71.82377681405596 H 0.0 **** 0.06
37295 H 44.083450349897475 20.82684062904866 70.4832256312135 H 0.0 **** 0.06
37296 C 113.10882770977616 149.68406219799007 107.21852904037513 C 0.0 **** -0.24
37297 H 113.8296337106683 148.88068642506846 107.06555538023429 H 0.0 **** 0.06
37298 H 112.62370743406422 149.92207794269092 106.27196912401968 H 0.0 **** 0.06
37299 H 113.62313681520087 150.5669982389473 107.5963106022999 H 0.0 **** 0.06
37300 H 112.35772016451807 149.36496996678355 107.94149064105451 H 0.0 **** 0.06
37301 C 149.46584737386752 144.55530770618475 142.46744617733867 C 0.0 **** -0.24
37302 H 148.8926287482458 144.15013985833622 141.63441482417574 H 0.0 **** 0.06
37303 H 150.52808453305445 144.37964554590025 142.29667765862857 H 0.0 **** 0.06
37304 H 149.160523174856 144.06370483877592 143.39089655322323 H 0.0 **** 0.06
37305 H 149.28241114768647 145.62677447289323 142.54778904235863 H 0.0 **** 0.06
37306 C 146.28650984055938 9.77406753468506 121.48542344290712 C 0.0 **** -0.24
37307 H 145.7486148275871 9.34461665455325 122.33073862611428 H 0.0 **** 0.06
37308 H 147.14047887655886 9.141853629443176 121.23995989589758 H 0.0 **** 0.06
37309 H 146.6363563784295 10.772811741741066 121.7478987466061 H 0.0 **** 0.06
37310 H 145.62067966508533 9.836355053269699 120.6254610847771 H 0.0 **** 0.06
37311 C 66.42172916105723 44.989391852665904 157.15719631681804 C 0.0 **** -0.24
37312 H 65.57979250478803 44.97982145330093 156.46404700425325 H 0.0 **** 0.06
37313 H 66.3454438562371 44.13741325698402 157.8327781997499 H 0.0 **** 0.06
37314 H 66.40686411001424 45.91476248048309 157.73378812575112 H 0.0 **** 0.06
37315 H 67.35395837848039 44.92671607530309 156.59518002582087 H 0.0 **** 0.06
37316 C 106.9712255389637 117.69756624131105 133.42165523610663 C 0.0 **** -0.24
37317 H 106.43426324688548 117.03158597371419 132.7463600196893 H 0.0 **** 0.06
37318 H 106.93932672003768 117.29124868909295 134.4323685260449 H 0.0 **** 0.06
37319 H 106.50094345928133 118.68140119792369 133.40976263927985 H 0.0 **** 0.06
37320 H 108.00743742413042 117.78543392509337 133.09669674113326 H 0.0 **** 0.06
37321 C 90.93150359850054 68.69213149491577 147.3211353061101 C 0.0 **** -0.24
37322 H 91.38135662074913 68.65942962541322 148.31324804699443 H 0.0 **** 0.06
37323 H 91.49622081562453 68.04940126078694 146.64499020389272 H 0.0 **** 0.06
37324 H 90.9490661643419 69.71663228631579 146.94799381541566 H 0.0 **** 0.06
37325 H 89.90035348728719 68.34290654558959 147.37840878246777 H 0.0 **** 0.06
37326 C 39.21397758918488 61.24198488846349 68.44553178660459 C 0.0 **** -0.24
37327 H 39.784716867835414 62.16428669846431 68.33093708494943 H 0.0 **** 0.06
37328 H 39.252960830939855 60.91761369163163 69.48546711749975 H 0.0 **** 0.06
37329 H 39.64227875843801 60.46956979965364 67.80669229397927 H 0.0 **** 0.06
37330 H 38.1778490479208 61.41870277594944 68.1578387666502 H 0.0 **** 0.06
37331 C 14.23640289584307 65.30610929208764 66.057166635877 C 0.0 **** -0.24
37332 H 14.252019817217075 65.4469400202642 64.97595217803529 H 0.0 **** 0.06
37333 H 15.258014281958054 65.20290839042403 66.42313331562322 H 0.0 **** 0.06
37334 H 13.671308432732872 64.40499363049241 66.29725140142038 H 0.0 **** 0.06
37335 H 13.765110207092562 66.1678982938147 66.5296068657066 H 0.0 **** 0.06
37336 C 161.59443496498335 117.5052710094252 18.2114972736144 C 0.0 **** -0.24
37337 H 160.71598796177608 116.86286388687154 18.26810814729511 H 0.0 **** 0.06
37338 H 161.92941645411491 117.57104942684748 17.17616763139874 H 0.0 **** 0.06
37339 H 162.39054712268387 117.08618378874576 18.82547458448615 H 0.0 **** 0.06
37340 H 161.3398465628878 118.50041499994734 18.574859367240073 H 0.0 **** 0.06
37341 C 142.21517965382614 32.46303431582675 138.1536651399531 C 0.0 **** -0.24
37342 H 141.53755197305304 33.3147260874598 138.21108204361354 H 0.0 **** 0.06
37343 H 143.17906772996875 32.79218829043708 137.76530538674479 H 0.0 **** 0.06
37344 H 141.79441186486696 31.70756308898902 137.48993661441628 H 0.0 **** 0.06
37345 H 142.34949460255592 32.0383157982065 139.14906634845278 H 0.0 **** 0.06
37346 C 103.05537165603917 3.1067365493181 49.14647578091747 C 0.0 **** -0.24
37347 H 102.08126079176677 3.0325653156882026 48.66188880029655 H 0.0 **** 0.06
37348 H 103.32690286391573 4.157176922624387 49.254825700520584 H 0.0 **** 0.06
37349 H 103.80269475235488 2.598489823632349 48.538790623407095 H 0.0 **** 0.06
37350 H 103.00785964561535 2.6401705800794844 50.12993530316416 H 0.0 **** 0.06
37351 C 117.49565244266671 85.1775042590263 4.569058163935495 C 0.0 **** -0.24
37352 H 117.83825487708566 85.73373052037948 5.441936615659131 H 0.0 **** 0.06
37353 H 116.90939292074165 84.31779283659583 4.893760955787599 H 0.0 **** 0.06
37354 H 118.35782530311485 84.83451299357648 3.996761196694763 H 0.0 **** 0.06
37355 H 116.87969653419827 85.82397981534007 3.9453382931557144 H 0.0 **** 0.06
37356 C 72.10996524261216 104.32946409138037 140.46122613767187 C 0.0 **** -0.24
37357 H 71.9856994534417 103.33322366998902 140.88554310493117 H 0.0 **** 0.06
37358 H 72.48887881395702 104.24423286824032 139.44239885962352 H 0.0 **** 0.06
37359 H 72.81697374261917 104.89674568140879 141.066351270768 H 0.0 **** 0.06
37360 H 71.14788990209912 104.84146883962495 140.45083262413482 H 0.0 **** 0.06
37361 C 84.4805928931661 133.438456204251 93.69107655774008 C 0.0 **** -0.24
37362 H 83.73155351442531 133.78606222411082 92.97936107398266 H 0.0 **** 0.06
37363 H 84.99642865022324 132.5707000917455 93.2807966091982 H 0.0 **** 0.06
37364 H 83.99318914955474 133.16348913371826 94.62641850306409 H 0.0 **** 0.06
37365 H 85.20156123716562 134.23489117448872 93.87809492728593 H 0.0 **** 0.06
37366 C 127.99313689593521 151.84898847972417 13.96369483485978 C 0.0 **** -0.24
37367 H 127.27431497332907 151.05207957123986 14.15451960657822 H 0.0 **** 0.06
37368 H 128.94589390270846 151.41295592817144 13.663149399316808 H 0.0 **** 0.06
37369 H 128.1326658154385 152.43702705464824 14.870556542873146 H 0.0 **** 0.06
37370 H 127.62027517857018 152.4917842538978 13.166998184185218 H 0.0 **** 0.06
37371 C 130.07487515902477 134.3670887367667 127.3756822555194 C 0.0 **** -0.24
37372 H 130.0051172106678 135.45298184172623 127.44000061295037 H 0.0 **** 0.06
37373 H 131.06919603408005 134.04817230470346 127.69010267008116 H 0.0 **** 0.06
37374 H 129.90065638388532 134.05339044851175 126.34643881580098 H 0.0 **** 0.06
37375 H 129.32566354771728 133.91557354086012 128.02491857820343 H 0.0 **** 0.06
37376 C 122.01624966877088 23.417704837978285 155.5276771370137 C 0.0 **** -0.24
37377 H 121.59691550448593 24.155444094606153 154.84389903686667 H 0.0 **** 0.06
37378 H 123.08791157507224 23.32583195188039 155.34990199979558 H 0.0 **** 0.06
37379 H 121.53566339564429 22.45425603540336 155.3611116551209 H 0.0 **** 0.06
37380 H 121.84321376605524 23.7370690171364 156.55540859770838 H 0.0 **** 0.06
37381 C 122.71888557545674 135.6924169350307 19.850760791057155 C 0.0 **** -0.24
37382 H 122.65387541092025 135.3202926933068 20.873186378456325 H 0.0 **** 0.06
37383 H 121.71725427333678 135.91286489327373 19.480791457904957 H 0.0 **** 0.06
37384 H 123.18310476138811 134.9362860975213 19.217681366739498 H 0.0 **** 0.06
37385 H 123.32064884262303 136.60185336416032 19.833090195929145 H 0.0 **** 0.06
37386 C 80.71226136494636 3.2725114065452487 153.66576009938916 C 0.0 **** -0.24
37387 H 80.44263888605558 2.4026996275979116 153.06646546928891 H 0.0 **** 0.06
37388 H 81.09499338001673 2.9435110222889875 154.63234679247563 H 0.0 **** 0.06
37389 H 79.83156546440559 3.897474990819802 153.81622646580706 H 0.0 **** 0.06
37390 H 81.48023576997372 3.846494285064921 153.14708984859828 H 0.0 **** 0.06
37391 C 150.50430918447836 29.24839579981324 87.24885770228872 C 0.0 **** -0.24
37392 H 150.5821697513101 29.480154640938537 86.18612986334213 H 0.0 **** 0.06
37393 H 151.3741562931582 28.669624788135565 87.55931861168214 H 0.0 **** 0.06
37394 H 149.59855195808413 28.669141563289088 87.42854141246303 H 0.0 **** 0.06
37395 H 150.46085069001904 30.175869395625 87.81993470930368 H 0.0 **** 0.06
37396 C 135.51733556558884 44.715085296032356 13.49865626502617 C 0.0 **** -0.24
37397 H 135.64065807342422 43.66383318532321 13.759173861203095 H 0.0 **** 0.06
37398 H 134.5270625323305 44.86869545476435 13.069326428552955 H 0.0 **** 0.06
37399 H 136.27746998879994 45.000937604433005 12.771765650276848 H 0.0 **** 0.06
37400 H 135.6234528739451 45.325827188946704 14.395912833821654 H 0.0 **** 0.06
37401 C 135.2790470275054 39.41651382389034 33.862447197379424 C 0.0 **** -0.24
37402 H 134.90862110744723 38.99121513851041 32.928553420364096 H 0.0 **** 0.06
37403 H 135.38416488625035 38.62636510159564 34.605558274639066 H 0.0 **** 0.06
37404 H 134.5744831197872 40.165687580946525 34.223764566458726 H 0.0 **** 0.06
37405 H 136.24847920245685 39.884228848711246 33.68807462046993 H 0.0 **** 0.06
37406 C 146.10172768971117 2.8983864749325505 13.689299027216123 C 0.0 **** -0.24
37407 H 146.1053402611281 2.9747142298038867 14.77667149447953 H 0.0 **** 0.06
37408 H 145.51012865317014 3.712123211898266 13.269209781020493 H 0.0 **** 0.06
37409 H 145.66741923483002 1.9426350504812646 13.394257898352066 H 0.0 **** 0.06
37410 H 147.12435200370578 2.962102715953762 13.31714634957737 H 0.0 **** 0.06
37411 C 10.927243065194375 35.008497754840434 78.94266481560146 C 0.0 **** -0.24
37412 H 10.299424580834767 35.8536556510835 78.66064897675318 H 0.0 **** 0.06
37413 H 11.32444525966082 35.16984119879368 79.94568207283433 H 0.0 **** 0.06
37414 H 11.750548797254822 34.91543793581137 78.23539658087104 H 0.0 **** 0.06
37415 H 10.332691888744478 34.0946481670958 78.93047033536583 H 0.0 **** 0.06
37416 C 101.85685916884364 79.64597396658282 65.69786203033634 C 0.0 **** -0.24
37417 H 101.10265613345086 79.16468237597552 66.32006941308244 H 0.0 **** 0.06
37418 H 101.39791370748307 80.4575542725724 65.13222225032642 H 0.0 **** 0.06
37419 H 102.27928381282197 78.91528592726269 65.00852593810728 H 0.0 **** 0.06
37420 H 102.64806714504272 80.04702883069811 66.33121010741196 H 0.0 **** 0.06
37421 C 10.452352493124039 64.94689986750615 136.4904746893655 C 0.0 **** -0.24
37422 H 11.407172550070754 65.42093803685812 136.72091854560404 H 0.0 **** 0.06
37423 H 9.666189332899933 65.4037085958394 137.0915089006284 H 0.0 **** 0.06
37424 H 10.511590530118042 63.88240711110515 136.7160115265022 H 0.0 **** 0.06
37425 H 10.226241483385337 65.0827280290311 135.43243243799452 H 0.0 **** 0.06
37426 C 4.397310863730667 154.34083532421866 150.20901501483516 C 0.0 **** -0.24
37427 H 4.515751836709086 153.6461633264798 149.37751251687368 H 0.0 **** 0.06
37428 H 4.659551096328215 155.34705077958293 149.8810174608488 H 0.0 **** 0.06
37429 H 5.051913048740147 154.04228569644724 151.02725515464488 H 0.0 **** 0.06
37430 H 3.3617982418107886 154.32707336501463 150.548442564832 H 0.0 **** 0.06
37431 C 99.09979593207464 136.00131269995447 36.21313996341922 C 0.0 **** -0.24
37432 H 99.99244028612486 135.90021983241928 36.830818001749876 H 0.0 **** 0.06
37433 H 98.21672790298771 136.02063754112604 36.85323942208284 H 0.0 **** 0.06
37434 H 99.03441718844553 135.15547988159278 35.528677165285885 H 0.0 **** 0.06
37435 H 99.15685275722629 136.92767917535284 35.643127266868305 H 0.0 **** 0.06
37436 C 38.725807356444136 33.09893987136584 8.937160831621526 C 0.0 **** -0.24
37437 H 38.08477878090366 33.90798229698294 9.287695540363217 H 0.0 **** 0.06
37438 H 39.65006519497203 33.09107799573255 9.515578084336994 H 0.0 **** 0.06
37439 H 38.958237486104906 33.25082419403216 7.882587801005769 H 0.0 **** 0.06
37440 H 38.210796555582235 32.14653899696944 9.062409791664436 H 0.0 **** 0.06
37441 C 1.073697496365348 145.75237336712075 66.75259419963754 C 0.0 **** -0.24
37442 H 0.11387783566430798 145.9444020704782 67.23150967591289 H 0.0 **** 0.06
37443 H 0.9500557996564396 145.7738411196874 65.66912303283493 H 0.0 **** 0.06
37444 H 1.4411999891008804 144.77226478097697 67.05759411935074 H 0.0 **** 0.06
37445 H 1.789547260433764 146.51803025738565 67.05242500475163 H 0.0 **** 0.06
37446 C 18.68494843069101 3.253584210130242 55.21702588142891 C 0.0 **** -0.24
37447 H 18.497871214569955 4.2151275547721525 55.696347698196504 H 0.0 **** 0.06
37448 H 17.739106842099886 2.736742420500633 55.0582837173923 H 0.0 **** 0.06
37449 H 19.327875290950317 2.6480965501929177 55.85690840322212 H 0.0 **** 0.06
37450 H 19.17658162886522 3.416223156616553 54.25825885763288 H 0.0 **** 0.06
37451 C 112.1767255500232 115.25922166407929 37.9568526619004 C 0.0 **** -0.24
37452 H 111.99411312513689 114.40115549841192 38.6030112992797 H 0.0 **** 0.06
37453 H 113.23791884688558 115.30835638689359 37.709685779141694 H 0.0 **** 0.06
37454 H 111.8807191243676 116.17195800445774 38.4725244375922 H 0.0 **** 0.06
37455 H 111.59495942592741 115.15432939809955 37.04041025668343 H 0.0 **** 0.06
37456 C 1.5664751179687357 161.79643466674761 74.42659727446403 C 0.0 **** -0.24
37457 H 1.6410739379464303 160.85065637072591 73.88968546253145 H 0.0 **** 0.06
37458 H 0.7289746196765421 162.37231390188214 74.03319433981926 H 0.0 **** 0.06
37459 H 2.4898200726566984 162.36105779760905 74.29581240625208 H 0.0 **** 0.06
37460 H 1.407018187851257 161.6001068607426 75.48649052997564 H 0.0 **** 0.06
37461 C 76.39134958707872 119.43287071571038 155.07153321124323 C 0.0 **** -0.24
37462 H 77.42918702427056 119.09981692378602 155.08375957332666 H 0.0 **** 0.06
37463 H 76.35563526045821 120.50039090675926 154.8551470465244 H 0.0 **** 0.06
37464 H 75.93651746116298 119.24191865435017 156.04316579733702 H 0.0 **** 0.06
37465 H 75.84497461173022 118.88787324633793 154.30090422121305 H 0.0 **** 0.06
37466 C 75.53910153110216 34.83447603539065 109.08595981394771 C 0.0 **** -0.24
37467 H 76.12060967502416 35.535542638047886 108.48667876663217 H 0.0 **** 0.06
37468 H 75.19539555023955 34.015924953314425 108.45358082989495 H 0.0 **** 0.06
37469 H 74.68035652861356 35.34909560468725 109.5152330704133 H 0.0 **** 0.06
37470 H 76.16283941013911 34.43776538513052 109.88692958270966 H 0.0 **** 0.06
37471 C 27.11113899898072 66.55026298416303 97.08603956227654 C 0.0 **** -0.24
37472 H 27.69265747129259 65.72747019957706 96.67062874837973 H 0.0 **** 0.06
37473 H 26.25979310092083 66.75673412703371 96.43823893426668 H 0.0 **** 0.06
37474 H 27.737993183118363 67.43869082203109 97.15787022246974 H 0.0 **** 0.06
37475 H 26.75465347536789 66.27663227303546 98.07925966454081 H 0.0 **** 0.06
37476 C 126.47932440022996 10.459674826104141 46.07495499340014 C 0.0 **** -0.24
37477 H 127.00875699720618 10.692259821513055 46.998555654333785 H 0.0 **** 0.06
37478 H 127.0716115941755 9.760527053747857 45.482606109519196 H 0.0 **** 0.06
37479 H 126.32197769215753 11.376020972051236 45.50569615745917 H 0.0 **** 0.06
37480 H 125.51605428142713 10.009805143840069 46.311629344191246 H 0.0 **** 0.06
37481 C 22.851197863124128 0.768102590046766 48.90718305225637 C 0.0 **** -0.24
37482 H 22.864774181059637 -0.20278663299043842 49.40212410558584 H 0.0 **** 0.06
37483 H 21.931094924800817 0.8688420242300765 48.331176092348315 H 0.0 **** 0.06
37484 H 23.709448397959477 0.8467714934284913 48.24048142933644 H 0.0 **** 0.06
37485 H 22.898771916682705 1.5576971558758714 49.657389690421184 H 0.0 **** 0.06
37486 C 154.79865210746277 120.94922026695374 116.88415181856797 C 0.0 **** -0.24
37487 H 154.7285392197458 120.69191204669869 115.82748843538761 H 0.0 **** 0.06
37488 H 154.21414594240022 121.8493634577994 117.0781948004524 H 0.0 **** 0.06
37489 H 155.8406773405456 121.12899114357697 117.14592205724125 H 0.0 **** 0.06
37490 H 154.4100931529909 120.12606455326625 117.48439467654072 H 0.0 **** 0.06
37491 C 162.750957771325 50.88990138018585 147.39270900109784 C 0.0 **** -0.24
37492 H 162.67617827028604 49.82647827453455 147.62002635955355 H 0.0 **** 0.06
37493 H 162.04784521803612 51.444544440812905 148.01433724863892 H 0.0 **** 0.06
37494 H 162.51385282962983 51.05339530508306 146.34065867480535 H 0.0 **** 0.06
37495 H 163.7651833029486 51.23403942964154 147.59379209890307 H 0.0 **** 0.06
37496 C 151.85904808901273 111.83751658217108 81.43240945840364 C 0.0 **** -0.24
37497 H 151.18730305067047 112.69449181063905 81.48124505064948 H 0.0 **** 0.06
37498 H 152.87523197381043 112.159853105152 81.65907072155284 H 0.0 **** 0.06
37499 H 151.82854011819714 111.40986748326407 80.43000914740924 H 0.0 **** 0.06
37500 H 151.54494029363963 111.08752518875795 82.15753084402292 H 0.0 **** 0.06
@<TRIPOS>BOND
1 1 2 28
2 1 3 28
3 1 4 28
4 1 5 28
5 6 7 28
6 6 8 28
7 6 9 28
8 6 10 28
9 11 12 28
10 11 13 28
11 11 14 28
12 11 15 28
13 16 17 28
14 16 18 28
15 16 19 28
16 16 20 28
17 21 22 28
18 21 23 28
19 21 24 28
20 21 25 28
21 26 27 28
22 26 28 28
23 26 29 28
24 26 30 28
25 31 32 28
26 31 33 28
27 31 34 28
28 31 35 28
29 36 37 28
30 36 38 28
31 36 39 28
32 36 40 28
33 41 42 28
34 41 43 28
35 41 44 28
36 41 45 28
37 46 47 28
38 46 48 28
39 46 49 28
40 46 50 28
41 51 52 28
42 51 53 28
43 51 54 28
44 51 55 28
45 56 57 28
46 56 58 28
47 56 59 28
48 56 60 28
49 61 62 28
50 61 63 28
51 61 64 28
52 61 65 28
53 66 67 28
54 66 68 28
55 66 69 28
56 66 70 28
57 71 72 28
58 71 73 28
59 71 74 28
60 71 75 28
61 76 77 28
62 76 78 28
63 76 79 28
64 76 80 28
65 81 82 28
66 81 83 28
67 81 84 28
68 81 85 28
69 86 87 28
70 86 88 28
71 86 89 28
72 86 90 28
73 91 92 28
74 91 93 28
75 91 94 28
76 91 95 28
77 96 97 28
78 96 98 28
79 96 99 28
80 96 100 28
81 101 102 28
82 101 103 28
83 101 104 28
84 101 105 28
85 106 107 28
86 106 108 28
87 106 109 28
88 106 110 28
89 111 112 28
90 111 113 28
91 111 114 28
92 111 115 28
93 116 117 28
94 116 118 28
95 116 119 28
96 116 120 28
97 121 122 28
98 121 123 28
99 121 124 28
100 121 125 28
101 126 127 28
102 126 128 28
103 126 129 28
104 126 130 28
105 131 132 28
106 131 133 28
107 131 134 28
108 131 135 28
109 136 137 28
110 136 138 28
111 136 139 28
112 136 140 28
113 141 142 28
114 141 143 28
115 141 144 28
116 141 145 28
117 146 147 28
118 146 148 28
119 146 149 28
120 146 150 28
121 151 152 28
122 151 153 28
123 151 154 28
124 151 155 28
125 156 157 28
126 156 158 28
127 156 159 28
128 156 160 28
129 161 162 28
130 161 163 28
131 161 164 28
132 161 165 28
133 166 167 28
134 166 168 28
135 166 169 28
136 166 170 28
137 171 172 28
138 171 173 28
139 171 174 28
140 171 175 28
141 176 177 28
142 176 178 28
143 176 179 28
144 176 180 28
145 181 182 28
146 181 183 28
147 181 184 28
148 181 185 28
149 186 187 28
150 186 188 28
151 186 189 28
152 186 190 28
153 191 192 28
154 191 193 28
155 191 194 28
156 191 195 28
157 196 197 28
158 196 198 28
159 196 199 28
160 196 200 28
161 201 202 28
162 201 203 28
163 201 204 28
164 201 205 28
165 206 207 28
166 206 208 28
167 206 209 28
168 206 210 28
169 211 212 28
170 211 213 28
171 211 214 28
172 211 215 28
173 216 217 28
174 216 218 28
175 216 219 28
176 216 220 28
177 221 222 28
178 221 223 28
179 221 224 28
180 221 225 28
181 226 227 28
182 226 228 28
183 226 229 28
184 226 230 28
185 231 232 28
186 231 233 28
187 231 234 28
188 231 235 28
189 236 237 28
190 236 238 28
191 236 239 28
192 236 240 28
193 241 242 28
194 241 243 28
195 241 244 28
196 241 245 28
197 246 247 28
198 246 248 28
199 246 249 28
200 246 250 28
201 251 252 28
202 251 253 28
203 251 254 28
204 251 255 28
205 256 257 28
206 256 258 28
207 256 259 28
208 256 260 28
209 261 262 28
210 261 263 28
211 261 264 28
212 261 265 28
213 266 267 28
214 266 268 28
215 266 269 28
216 266 270 28
217 271 272 28
218 271 273 28
219 271 274 28
220 271 275 28
221 276 277 28
222 276 278 28
223 276 279 28
224 276 280 28
225 281 282 28
226 281 283 28
227 281 284 28
228 281 285 28
229 286 287 28
230 286 288 28
231 286 289 28
232 286 290 28
233 291 292 28
234 291 293 28
235 291 294 28
236 291 295 28
237 296 297 28
238 296 298 28
239 296 299 28
240 296 300 28
241 301 302 28
242 301 303 28
243 301 304 28
244 301 305 28
245 306 307 28
246 306 308 28
247 306 309 28
248 306 310 28
249 311 312 28
250 311 313 28
251 311 314 28
252 311 315 28
253 316 317 28
254 316 318 28
255 316 319 28
256 316 320 28
257 321 322 28
258 321 323 28
259 321 324 28
260 321 325 28
261 326 327 28
262 326 328 28
263 326 329 28
264 326 330 28
265 331 332 28
266 331 333 28
267 331 334 28
268 331 335 28
269 336 337 28
270 336 338 28
271 336 339 28
272 336 340 28
273 341 342 28
274 341 343 28
275 341 344 28
276 341 345 28
277 346 347 28
278 346 348 28
279 346 349 28
280 346 350 28
281 351 352 28
282 351 353 28
283 351 354 28
284 351 355 28
285 356 357 28
286 356 358 28
287 356 359 28
288 356 360 28
289 361 362 28
290 361 363 28
291 361 364 28
292 361 365 28
293 366 367 28
294 366 368 28
295 366 369 28
296 366 370 28
297 371 372 28
298 371 373 28
299 371 374 28
300 371 375 28
301 376 377 28
302 376 378 28
303 376 379 28
304 376 380 28
305 381 382 28
306 381 383 28
307 381 384 28
308 381 385 28
309 386 387 28
310 386 388 28
311 386 389 28
312 386 390 28
313 391 392 28
314 391 393 28
315 391 394 28
316 391 395 28
317 396 397 28
318 396 398 28
319 396 399 28
320 396 400 28
321 401 402 28
322 401 403 28
323 401 404 28
324 401 405 28
325 406 407 28
326 406 408 28
327 406 409 28
328 406 410 28
329 411 412 28
330 411 413 28
331 411 414 28
332 411 415 28
333 416 417 28
334 416 418 28
335 416 419 28
336 416 420 28
337 421 422 28
338 421 423 28
339 421 424 28
340 421 425 28
341 426 427 28
342 426 428 28
343 426 429 28
344 426 430 28
345 431 432 28
346 431 433 28
347 431 434 28
348 431 435 28
349 436 437 28
350 436 438 28
351 436 439 28
352 436 440 28
353 441 442 28
354 441 443 28
355 441 444 28
356 441 445 28
357 446 447 28
358 446 448 28
359 446 449 28
360 446 450 28
361 451 452 28
362 451 453 28
363 451 454 28
364 451 455 28
365 456 457 28
366 456 458 28
367 456 459 28
368 456 460 28
369 461 462 28
370 461 463 28
371 461 464 28
372 461 465 28
373 466 467 28
374 466 468 28
375 466 469 28
376 466 470 28
377 471 472 28
378 471 473 28
379 471 474 28
380 471 475 28
381 476 477 28
382 476 478 28
383 476 479 28
384 476 480 28
385 481 482 28
386 481 483 28
387 481 484 28
388 481 485 28
389 486 487 28
390 486 488 28
391 486 489 28
392 486 490 28
393 491 492 28
394 491 493 28
395 491 494 28
396 491 495 28
397 496 497 28
398 496 498 28
399 496 499 28
400 496 500 28
401 501 502 28
402 501 503 28
403 501 504 28
404 501 505 28
405 506 507 28
406 506 508 28
407 506 509 28
408 506 510 28
409 511 512 28
410 511 513 28
411 511 514 28
412 511 515 28
413 516 517 28
414 516 518 28
415 516 519 28
416 516 520 28
417 521 522 28
418 521 523 28
419 521 524 28
420 521 525 28
421 526 527 28
422 526 528 28
423 526 529 28
424 526 530 28
425 531 532 28
426 531 533 28
427 531 534 28
428 531 535 28
429 536 537 28
430 536 538 28
431 536 539 28
432 536 540 28
433 541 542 28
434 541 543 28
435 541 544 28
436 541 545 28
437 546 547 28
438 546 548 28
439 546 549 28
440 546 550 28
441 551 552 28
442 551 553 28
443 551 554 28
444 551 555 28
445 556 557 28
446 556 558 28
447 556 559 28
448 556 560 28
449 561 562 28
450 561 563 28
451 561 564 28
452 561 565 28
453 566 567 28
454 566 568 28
455 566 569 28
456 566 570 28
457 571 572 28
458 571 573 28
459 571 574 28
460 571 575 28
461 576 577 28
462 576 578 28
463 576 579 28
464 576 580 28
465 581 582 28
466 581 583 28
467 581 584 28
468 581 585 28
469 586 587 28
470 586 588 28
471 586 589 28
472 586 590 28
473 591 592 28
474 591 593 28
475 591 594 28
476 591 595 28
477 596 597 28
478 596 598 28
479 596 599 28
480 596 600 28
481 601 602 28
482 601 603 28
483 601 604 28
484 601 605 28
485 606 607 28
486 606 608 28
487 606 609 28
488 606 610 28
489 611 612 28
490 611 613 28
491 611 614 28
492 611 615 28
493 616 617 28
494 616 618 28
495 616 619 28
496 616 620 28
497 621 622 28
498 621 623 28
499 621 624 28
500 621 625 28
501 626 627 28
502 626 628 28
503 626 629 28
504 626 630 28
505 631 632 28
506 631 633 28
507 631 634 28
508 631 635 28
509 636 637 28
510 636 638 28
511 636 639 28
512 636 640 28
513 641 642 28
514 641 643 28
515 641 644 28
516 641 645 28
517 646 647 28
518 646 648 28
519 646 649 28
520 646 650 28
521 651 652 28
522 651 653 28
523 651 654 28
524 651 655 28
525 656 657 28
526 656 658 28
527 656 659 28
528 656 660 28
529 661 662 28
530 661 663 28
531 661 664 28
532 661 665 28
533 666 667 28
534 666 668 28
535 666 669 28
536 666 670 28
537 671 672 28
538 671 673 28
539 671 674 28
540 671 675 28
541 676 677 28
542 676 678 28
543 676 679 28
544 676 680 28
545 681 682 28
546 681 683 28
547 681 684 28
548 681 685 28
549 686 687 28
550 686 688 28
551 686 689 28
552 686 690 28
553 691 692 28
554 691 693 28
555 691 694 28
556 691 695 28
557 696 697 28
558 696 698 28
559 696 699 28
560 696 700 28
561 701 702 28
562 701 703 28
563 701 704 28
564 701 705 28
565 706 707 28
566 706 708 28
567 706 709 28
568 706 710 28
569 711 712 28
570 711 713 28
571 711 714 28
572 711 715 28
573 716 717 28
574 716 718 28
575 716 719 28
576 716 720 28
577 721 722 28
578 721 723 28
579 721 724 28
580 721 725 28
581 726 727 28
582 726 728 28
583 726 729 28
584 726 730 28
585 731 732 28
586 731 733 28
587 731 734 28
588 731 735 28
589 736 737 28
590 736 738 28
591 736 739 28
592 736 740 28
593 741 742 28
594 741 743 28
595 741 744 28
596 741 745 28
597 746 747 28
598 746 748 28
599 746 749 28
600 746 750 28
601 751 752 28
602 751 753 28
603 751 754 28
604 751 755 28
605 756 757 28
606 756 758 28
607 756 759 28
608 756 760 28
609 761 762 28
610 761 763 28
611 761 764 28
612 761 765 28
613 766 767 28
614 766 768 28
615 766 769 28
616 766 770 28
617 771 772 28
618 771 773 28
619 771 774 28
620 771 775 28
621 776 777 28
622 776 778 28
623 776 779 28
624 776 780 28
625 781 782 28
626 781 783 28
627 781 784 28
628 781 785 28
629 786 787 28
630 786 788 28
631 786 789 28
632 786 790 28
633 791 792 28
634 791 793 28
635 791 794 28
636 791 795 28
637 796 797 28
638 796 798 28
639 796 799 28
640 796 800 28
641 801 802 28
642 801 803 28
643 801 804 28
644 801 805 28
645 806 807 28
646 806 808 28
647 806 809 28
648 806 810 28
649 811 812 28
650 811 813 28
651 811 814 28
652 811 815 28
653 816 817 28
654 816 818 28
655 816 819 28
656 816 820 28
657 821 822 28
658 821 823 28
659 821 824 28
660 821 825 28
661 826 827 28
662 826 828 28
663 826 829 28
664 826 830 28
665 831 832 28
666 831 833 28
667 831 834 28
668 831 835 28
669 836 837 28
670 836 838 28
671 836 839 28
672 836 840 28
673 841 842 28
674 841 843 28
675 841 844 28
676 841 845 28
677 846 847 28
678 846 848 28
679 846 849 28
680 846 850 28
681 851 852 28
682 851 853 28
683 851 854 28
684 851 855 28
685 856 857 28
686 856 858 28
687 856 859 28
688 856 860 28
689 861 862 28
690 861 863 28
691 861 864 28
692 861 865 28
693 866 867 28
694 866 868 28
695 866 869 28
696 866 870 28
697 871 872 28
698 871 873 28
699 871 874 28
700 871 875 28
701 876 877 28
702 876 878 28
703 876 879 28
704 876 880 28
705 881 882 28
706 881 883 28
707 881 884 28
708 881 885 28
709 886 887 28
710 886 888 28
711 886 889 28
712 886 890 28
713 891 892 28
714 891 893 28
715 891 894 28
716 891 895 28
717 896 897 28
718 896 898 28
719 896 899 28
720 896 900 28
721 901 902 28
722 901 903 28
723 901 904 28
724 901 905 28
725 906 907 28
726 906 908 28
727 906 909 28
728 906 910 28
729 911 912 28
730 911 913 28
731 911 914 28
732 911 915 28
733 916 917 28
734 916 918 28
735 916 919 28
736 916 920 28
737 921 922 28
738 921 923 28
739 921 924 28
740 921 925 28
741 926 927 28
742 926 928 28
743 926 929 28
744 926 930 28
745 931 932 28
746 931 933 28
747 931 934 28
748 931 935 28
749 936 937 28
750 936 938 28
751 936 939 28
752 936 940 28
753 941 942 28
754 941 943 28
755 941 944 28
756 941 945 28
757 946 947 28
758 946 948 28
759 946 949 28
760 946 950 28
761 951 952 28
762 951 953 28
763 951 954 28
764 951 955 28
765 956 957 28
766 956 958 28
767 956 959 28
768 956 960 28
769 961 962 28
770 961 963 28
771 961 964 28
772 961 965 28
773 966 967 28
774 966 968 28
775 966 969 28
776 966 970 28
777 971 972 28
778 971 973 28
779 971 974 28
780 971 975 28
781 976 977 28
782 976 978 28
783 976 979 28
784 976 980 28
785 981 982 28
786 981 983 28
787 981 984 28
788 981 985 28
789 986 987 28
790 986 988 28
791 986 989 28
792 986 990 28
793 991 992 28
794 991 993 28
795 991 994 28
796 991 995 28
797 996 997 28
798 996 998 28
799 996 999 28
800 996 1000 28
801 1001 1002 28
802 1001 1003 28
803 1001 1004 28
804 1001 1005 28
805 1006 1007 28
806 1006 1008 28
807 1006 1009 28
808 1006 1010 28
809 1011 1012 28
810 1011 1013 28
811 1011 1014 28
812 1011 1015 28
813 1016 1017 28
814 1016 1018 28
815 1016 1019 28
816 1016 1020 28
817 1021 1022 28
818 1021 1023 28
819 1021 1024 28
820 1021 1025 28
821 1026 1027 28
822 1026 1028 28
823 1026 1029 28
824 1026 1030 28
825 1031 1032 28
826 1031 1033 28
827 1031 1034 28
828 1031 1035 28
829 1036 1037 28
830 1036 1038 28
831 1036 1039 28
832 1036 1040 28
833 1041 1042 28
834 1041 1043 28
835 1041 1044 28
836 1041 1045 28
837 1046 1047 28
838 1046 1048 28
839 1046 1049 28
840 1046 1050 28
841 1051 1052 28
842 1051 1053 28
843 1051 1054 28
844 1051 1055 28
845 1056 1057 28
846 1056 1058 28
847 1056 1059 28
848 1056 1060 28
849 1061 1062 28
850 1061 1063 28
851 1061 1064 28
852 1061 1065 28
853 1066 1067 28
854 1066 1068 28
855 1066 1069 28
856 1066 1070 28
857 1071 1072 28
858 1071 1073 28
859 1071 1074 28
860 1071 1075 28
861 1076 1077 28
862 1076 1078 28
863 1076 1079 28
864 1076 1080 28
865 1081 1082 28
866 1081 1083 28
867 1081 1084 28
868 1081 1085 28
869 1086 1087 28
870 1086 1088 28
871 1086 1089 28
872 1086 1090 28
873 1091 1092 28
874 1091 1093 28
875 1091 1094 28
876 1091 1095 28
877 1096 1097 28
878 1096 1098 28
879 1096 1099 28
880 1096 1100 28
881 1101 1102 28
882 1101 1103 28
883 1101 1104 28
884 1101 1105 28
885 1106 1107 28
886 1106 1108 28
887 1106 1109 28
888 1106 1110 28
889 1111 1112 28
890 1111 1113 28
891 1111 1114 28
892 1111 1115 28
893 1116 1117 28
894 1116 1118 28
895 1116 1119 28
896 1116 1120 28
897 1121 1122 28
898 1121 1123 28
899 1121 1124 28
900 1121 1125 28
901 1126 1127 28
902 1126 1128 28
903 1126 1129 28
904 1126 1130 28
905 1131 1132 28
906 1131 1133 28
907 1131 1134 28
908 1131 1135 28
909 1136 1137 28
910 1136 1138 28
911 1136 1139 28
912 1136 1140 28
913 1141 1142 28
914 1141 1143 28
915 1141 1144 28
916 1141 1145 28
917 1146 1147 28
918 1146 1148 28
919 1146 1149 28
920 1146 1150 28
921 1151 1152 28
922 1151 1153 28
923 1151 1154 28
924 1151 1155 28
925 1156 1157 28
926 1156 1158 28
927 1156 1159 28
928 1156 1160 28
929 1161 1162 28
930 1161 1163 28
931 1161 1164 28
932 1161 1165 28
933 1166 1167 28
934 1166 1168 28
935 1166 1169 28
936 1166 1170 28
937 1171 1172 28
938 1171 1173 28
939 1171 1174 28
940 1171 1175 28
941 1176 1177 28
942 1176 1178 28
943 1176 1179 28
944 1176 1180 28
945 1181 1182 28
946 1181 1183 28
947 1181 1184 28
948 1181 1185 28
949 1186 1187 28
950 1186 1188 28
951 1186 1189 28
952 1186 1190 28
953 1191 1192 28
954 1191 1193 28
955 1191 1194 28
956 1191 1195 28
957 1196 1197 28
958 1196 1198 28
959 1196 1199 28
960 1196 1200 28
961 1201 1202 28
962 1201 1203 28
963 1201 1204 28
964 1201 1205 28
965 1206 1207 28
966 1206 1208 28
967 1206 1209 28
968 1206 1210 28
969 1211 1212 28
970 1211 1213 28
971 1211 1214 28
972 1211 1215 28
973 1216 1217 28
974 1216 1218 28
975 1216 1219 28
976 1216 1220 28
977 1221 1222 28
978 1221 1223 28
979 1221 1224 28
980 1221 1225 28
981 1226 1227 28
982 1226 1228 28
983 1226 1229 28
984 1226 1230 28
985 1231 1232 28
986 1231 1233 28
987 1231 1234 28
988 1231 1235 28
989 1236 1237 28
990 1236 1238 28
991 1236 1239 28
992 1236 1240 28
993 1241 1242 28
994 1241 1243 28
995 1241 1244 28
996 1241 1245 28
997 1246 1247 28
998 1246 1248 28
999 1246 1249 28
1000 1246 1250 28
1001 1251 1252 28
1002 1251 1253 28
1003 1251 1254 28
1004 1251 1255 28
1005 1256 1257 28
1006 1256 1258 28
1007 1256 1259 28
1008 1256 1260 28
1009 1261 1262 28
1010 1261 1263 28
1011 1261 1264 28
1012 1261 1265 28
1013 1266 1267 28
1014 1266 1268 28
1015 1266 1269 28
1016 1266 1270 28
1017 1271 1272 28
1018 1271 1273 28
1019 1271 1274 28
1020 1271 1275 28
1021 1276 1277 28
1022 1276 1278 28
1023 1276 1279 28
1024 1276 1280 28
1025 1281 1282 28
1026 1281 1283 28
1027 1281 1284 28
1028 1281 1285 28
1029 1286 1287 28
1030 1286 1288 28
1031 1286 1289 28
1032 1286 1290 28
1033 1291 1292 28
1034 1291 1293 28
1035 1291 1294 28
1036 1291 1295 28
1037 1296 1297 28
1038 1296 1298 28
1039 1296 1299 28
1040 1296 1300 28
1041 1301 1302 28
1042 1301 1303 28
1043 1301 1304 28
1044 1301 1305 28
1045 1306 1307 28
1046 1306 1308 28
1047 1306 1309 28
1048 1306 1310 28
1049 1311 1312 28
1050 1311 1313 28
1051 1311 1314 28
1052 1311 1315 28
1053 1316 1317 28
1054 1316 1318 28
1055 1316 1319 28
1056 1316 1320 28
1057 1321 1322 28
1058 1321 1323 28
1059 1321 1324 28
1060 1321 1325 28
1061 1326 1327 28
1062 1326 1328 28
1063 1326 1329 28
1064 1326 1330 28
1065 1331 1332 28
1066 1331 1333 28
1067 1331 1334 28
1068 1331 1335 28
1069 1336 1337 28
1070 1336 1338 28
1071 1336 1339 28
1072 1336 1340 28
1073 1341 1342 28
1074 1341 1343 28
1075 1341 1344 28
1076 1341 1345 28
1077 1346 1347 28
1078 1346 1348 28
1079 1346 1349 28
1080 1346 1350 28
1081 1351 1352 28
1082 1351 1353 28
1083 1351 1354 28
1084 1351 1355 28
1085 1356 1357 28
1086 1356 1358 28
1087 1356 1359 28
1088 1356 1360 28
1089 1361 1362 28
1090 1361 1363 28
1091 1361 1364 28
1092 1361 1365 28
1093 1366 1367 28
1094 1366 1368 28
1095 1366 1369 28
1096 1366 1370 28
1097 1371 1372 28
1098 1371 1373 28
1099 1371 1374 28
1100 1371 1375 28
1101 1376 1377 28
1102 1376 1378 28
1103 1376 1379 28
1104 1376 1380 28
1105 1381 1382 28
1106 1381 1383 28
1107 1381 1384 28
1108 1381 1385 28
1109 1386 1387 28
1110 1386 1388 28
1111 1386 1389 28
1112 1386 1390 28
1113 1391 1392 28
1114 1391 1393 28
1115 1391 1394 28
1116 1391 1395 28
1117 1396 1397 28
1118 1396 1398 28
1119 1396 1399 28
1120 1396 1400 28
1121 1401 1402 28
1122 1401 1403 28
1123 1401 1404 28
1124 1401 1405 28
1125 1406 1407 28
1126 1406 1408 28
1127 1406 1409 28
1128 1406 1410 28
1129 1411 1412 28
1130 1411 1413 28
1131 1411 1414 28
1132 1411 1415 28
1133 1416 1417 28
1134 1416 1418 28
1135 1416 1419 28
1136 1416 1420 28
1137 1421 1422 28
1138 1421 1423 28
1139 1421 1424 28
1140 1421 1425 28
1141 1426 1427 28
1142 1426 1428 28
1143 1426 1429 28
1144 1426 1430 28
1145 1431 1432 28
1146 1431 1433 28
1147 1431 1434 28
1148 1431 1435 28
1149 1436 1437 28
1150 1436 1438 28
1151 1436 1439 28
1152 1436 1440 28
1153 1441 1442 28
1154 1441 1443 28
1155 1441 1444 28
1156 1441 1445 28
1157 1446 1447 28
1158 1446 1448 28
1159 1446 1449 28
1160 1446 1450 28
1161 1451 1452 28
1162 1451 1453 28
1163 1451 1454 28
1164 1451 1455 28
1165 1456 1457 28
1166 1456 1458 28
1167 1456 1459 28
1168 1456 1460 28
1169 1461 1462 28
1170 1461 1463 28
1171 1461 1464 28
1172 1461 1465 28
1173 1466 1467 28
1174 1466 1468 28
1175 1466 1469 28
1176 1466 1470 28
1177 1471 1472 28
1178 1471 1473 28
1179 1471 1474 28
1180 1471 1475 28
1181 1476 1477 28
1182 1476 1478 28
1183 1476 1479 28
1184 1476 1480 28
1185 1481 1482 28
1186 1481 1483 28
1187 1481 1484 28
1188 1481 1485 28
1189 1486 1487 28
1190 1486 1488 28
1191 1486 1489 28
1192 1486 1490 28
1193 1491 1492 28
1194 1491 1493 28
1195 1491 1494 28
1196 1491 1495 28
1197 1496 1497 28
1198 1496 1498 28
1199 1496 1499 28
1200 1496 1500 28
1201 1501 1502 28
1202 1501 1503 28
1203 1501 1504 28
1204 1501 1505 28
1205 1506 1507 28
1206 1506 1508 28
1207 1506 1509 28
1208 1506 1510 28
1209 1511 1512 28
1210 1511 1513 28
1211 1511 1514 28
1212 1511 1515 28
1213 1516 1517 28
1214 1516 1518 28
1215 1516 1519 28
1216 1516 1520 28
1217 1521 1522 28
1218 1521 1523 28
1219 1521 1524 28
1220 1521 1525 28
1221 1526 1527 28
1222 1526 1528 28
1223 1526 1529 28
1224 1526 1530 28
1225 1531 1532 28
1226 1531 1533 28
1227 1531 1534 28
1228 1531 1535 28
1229 1536 1537 28
1230 1536 1538 28
1231 1536 1539 28
1232 1536 1540 28
1233 1541 1542 28
1234 1541 1543 28
1235 1541 1544 28
1236 1541 1545 28
1237 1546 1547 28
1238 1546 1548 28
1239 1546 1549 28
1240 1546 1550 28
1241 1551 1552 28
1242 1551 1553 28
1243 1551 1554 28
1244 1551 1555 28
1245 1556 1557 28
1246 1556 1558 28
1247 1556 1559 28
1248 1556 1560 28
1249 1561 1562 28
1250 1561 1563 28
1251 1561 1564 28
1252 1561 1565 28
1253 1566 1567 28
1254 1566 1568 28
1255 1566 1569 28
1256 1566 1570 28
1257 1571 1572 28
1258 1571 1573 28
1259 1571 1574 28
1260 1571 1575 28
1261 1576 1577 28
1262 1576 1578 28
1263 1576 1579 28
1264 1576 1580 28
1265 1581 1582 28
1266 1581 1583 28
1267 1581 1584 28
1268 1581 1585 28
1269 1586 1587 28
1270 1586 1588 28
1271 1586 1589 28
1272 1586 1590 28
1273 1591 1592 28
1274 1591 1593 28
1275 1591 1594 28
1276 1591 1595 28
1277 1596 1597 28
1278 1596 1598 28
1279 1596 1599 28
1280 1596 1600 28
1281 1601 1602 28
1282 1601 1603 28
1283 1601 1604 28
1284 1601 1605 28
1285 1606 1607 28
1286 1606 1608 28
1287 1606 1609 28
1288 1606 1610 28
1289 1611 1612 28
1290 1611 1613 28
1291 1611 1614 28
1292 1611 1615 28
1293 1616 1617 28
1294 1616 1618 28
1295 1616 1619 28
1296 1616 1620 28
1297 1621 1622 28
1298 1621 1623 28
1299 1621 1624 28
1300 1621 1625 28
1301 1626 1627 28
1302 1626 1628 28
1303 1626 1629 28
1304 1626 1630 28
1305 1631 1632 28
1306 1631 1633 28
1307 1631 1634 28
1308 1631 1635 28
1309 1636 1637 28
1310 1636 1638 28
1311 1636 1639 28
1312 1636 1640 28
1313 1641 1642 28
1314 1641 1643 28
1315 1641 1644 28
1316 1641 1645 28
1317 1646 1647 28
1318 1646 1648 28
1319 1646 1649 28
1320 1646 1650 28
1321 1651 1652 28
1322 1651 1653 28
1323 1651 1654 28
1324 1651 1655 28
1325 1656 1657 28
1326 1656 1658 28
1327 1656 1659 28
1328 1656 1660 28
1329 1661 1662 28
1330 1661 1663 28
1331 1661 1664 28
1332 1661 1665 28
1333 1666 1667 28
1334 1666 1668 28
1335 1666 1669 28
1336 1666 1670 28
1337 1671 1672 28
1338 1671 1673 28
1339 1671 1674 28
1340 1671 1675 28
1341 1676 1677 28
1342 1676 1678 28
1343 1676 1679 28
1344 1676 1680 28
1345 1681 1682 28
1346 1681 1683 28
1347 1681 1684 28
1348 1681 1685 28
1349 1686 1687 28
1350 1686 1688 28
1351 1686 1689 28
1352 1686 1690 28
1353 1691 1692 28
1354 1691 1693 28
1355 1691 1694 28
1356 1691 1695 28
1357 1696 1697 28
1358 1696 1698 28
1359 1696 1699 28
1360 1696 1700 28
1361 1701 1702 28
1362 1701 1703 28
1363 1701 1704 28
1364 1701 1705 28
1365 1706 1707 28
1366 1706 1708 28
1367 1706 1709 28
1368 1706 1710 28
1369 1711 1712 28
1370 1711 1713 28
1371 1711 1714 28
1372 1711 1715 28
1373 1716 1717 28
1374 1716 1718 28
1375 1716 1719 28
1376 1716 1720 28
1377 1721 1722 28
1378 1721 1723 28
1379 1721 1724 28
1380 1721 1725 28
1381 1726 1727 28
1382 1726 1728 28
1383 1726 1729 28
1384 1726 1730 28
1385 1731 1732 28
1386 1731 1733 28
1387 1731 1734 28
1388 1731 1735 28
1389 1736 1737 28
1390 1736 1738 28
1391 1736 1739 28
1392 1736 1740 28
1393 1741 1742 28
1394 1741 1743 28
1395 1741 1744 28
1396 1741 1745 28
1397 1746 1747 28
1398 1746 1748 28
1399 1746 1749 28
1400 1746 1750 28
1401 1751 1752 28
1402 1751 1753 28
1403 1751 1754 28
1404 1751 1755 28
1405 1756 1757 28
1406 1756 1758 28
1407 1756 1759 28
1408 1756 1760 28
1409 1761 1762 28
1410 1761 1763 28
1411 1761 1764 28
1412 1761 1765 28
1413 1766 1767 28
1414 1766 1768 28
1415 1766 1769 28
1416 1766 1770 28
1417 1771 1772 28
1418 1771 1773 28
1419 1771 1774 28
1420 1771 1775 28
1421 1776 1777 28
1422 1776 1778 28
1423 1776 1779 28
1424 1776 1780 28
1425 1781 1782 28
1426 1781 1783 28
1427 1781 1784 28
1428 1781 1785 28
1429 1786 1787 28
1430 1786 1788 28
1431 1786 1789 28
1432 1786 1790 28
1433 1791 1792 28
1434 1791 1793 28
1435 1791 1794 28
1436 1791 1795 28
1437 1796 1797 28
1438 1796 1798 28
1439 1796 1799 28
1440 1796 1800 28
1441 1801 1802 28
1442 1801 1803 28
1443 1801 1804 28
1444 1801 1805 28
1445 1806 1807 28
1446 1806 1808 28
1447 1806 1809 28
1448 1806 1810 28
1449 1811 1812 28
1450 1811 1813 28
1451 1811 1814 28
1452 1811 1815 28
1453 1816 1817 28
1454 1816 1818 28
1455 1816 1819 28
1456 1816 1820 28
1457 1821 1822 28
1458 1821 1823 28
1459 1821 1824 28
1460 1821 1825 28
1461 1826 1827 28
1462 1826 1828 28
1463 1826 1829 28
1464 1826 1830 28
1465 1831 1832 28
1466 1831 1833 28
1467 1831 1834 28
1468 1831 1835 28
1469 1836 1837 28
1470 1836 1838 28
1471 1836 1839 28
1472 1836 1840 28
1473 1841 1842 28
1474 1841 1843 28
1475 1841 1844 28
1476 1841 1845 28
1477 1846 1847 28
1478 1846 1848 28
1479 1846 1849 28
1480 1846 1850 28
1481 1851 1852 28
1482 1851 1853 28
1483 1851 1854 28
1484 1851 1855 28
1485 1856 1857 28
1486 1856 1858 28
1487 1856 1859 28
1488 1856 1860 28
1489 1861 1862 28
1490 1861 1863 28
1491 1861 1864 28
1492 1861 1865 28
1493 1866 1867 28
1494 1866 1868 28
1495 1866 1869 28
1496 1866 1870 28
1497 1871 1872 28
1498 1871 1873 28
1499 1871 1874 28
1500 1871 1875 28
1501 1876 1877 28
1502 1876 1878 28
1503 1876 1879 28
1504 1876 1880 28
1505 1881 1882 28
1506 1881 1883 28
1507 1881 1884 28
1508 1881 1885 28
1509 1886 1887 28
1510 1886 1888 28
1511 1886 1889 28
1512 1886 1890 28
1513 1891 1892 28
1514 1891 1893 28
1515 1891 1894 28
1516 1891 1895 28
1517 1896 1897 28
1518 1896 1898 28
1519 1896 1899 28
1520 1896 1900 28
1521 1901 1902 28
1522 1901 1903 28
1523 1901 1904 28
1524 1901 1905 28
1525 1906 1907 28
1526 1906 1908 28
1527 1906 1909 28
1528 1906 1910 28
1529 1911 1912 28
1530 1911 1913 28
1531 1911 1914 28
1532 1911 1915 28
1533 1916 1917 28
1534 1916 1918 28
1535 1916 1919 28
1536 1916 1920 28
1537 1921 1922 28
1538 1921 1923 28
1539 1921 1924 28
1540 1921 1925 28
1541 1926 1927 28
1542 1926 1928 28
1543 1926 1929 28
1544 1926 1930 28
1545 1931 1932 28
1546 1931 1933 28
1547 1931 1934 28
1548 1931 1935 28
1549 1936 1937 28
1550 1936 1938 28
1551 1936 1939 28
1552 1936 1940 28
1553 1941 1942 28
1554 1941 1943 28
1555 1941 1944 28
1556 1941 1945 28
1557 1946 1947 28
1558 1946 1948 28
1559 1946 1949 28
1560 1946 1950 28
1561 1951 1952 28
1562 1951 1953 28
1563 1951 1954 28
1564 1951 1955 28
1565 1956 1957 28
1566 1956 1958 28
1567 1956 1959 28
1568 1956 1960 28
1569 1961 1962 28
1570 1961 1963 28
1571 1961 1964 28
1572 1961 1965 28
1573 1966 1967 28
1574 1966 1968 28
1575 1966 1969 28
1576 1966 1970 28
1577 1971 1972 28
1578 1971 1973 28
1579 1971 1974 28
1580 1971 1975 28
1581 1976 1977 28
1582 1976 1978 28
1583 1976 1979 28
1584 1976 1980 28
1585 1981 1982 28
1586 1981 1983 28
1587 1981 1984 28
1588 1981 1985 28
1589 1986 1987 28
1590 1986 1988 28
1591 1986 1989 28
1592 1986 1990 28
1593 1991 1992 28
1594 1991 1993 28
1595 1991 1994 28
1596 1991 1995 28
1597 1996 1997 28
1598 1996 1998 28
1599 1996 1999 28
1600 1996 2000 28
1601 2001 2002 28
1602 2001 2003 28
1603 2001 2004 28
1604 2001 2005 28
1605 2006 2007 28
1606 2006 2008 28
1607 2006 2009 28
1608 2006 2010 28
1609 2011 2012 28
1610 2011 2013 28
1611 2011 2014 28
1612 2011 2015 28
1613 2016 2017 28
1614 2016 2018 28
1615 2016 2019 28
1616 2016 2020 28
1617 2021 2022 28
1618 2021 2023 28
1619 2021 2024 28
1620 2021 2025 28
1621 2026 2027 28
1622 2026 2028 28
1623 2026 2029 28
1624 2026 2030 28
1625 2031 2032 28
1626 2031 2033 28
1627 2031 2034 28
1628 2031 2035 28
1629 2036 2037 28
1630 2036 2038 28
1631 2036 2039 28
1632 2036 2040 28
1633 2041 2042 28
1634 2041 2043 28
1635 2041 2044 28
1636 2041 2045 28
1637 2046 2047 28
1638 2046 2048 28
1639 2046 2049 28
1640 2046 2050 28
1641 2051 2052 28
1642 2051 2053 28
1643 2051 2054 28
1644 2051 2055 28
1645 2056 2057 28
1646 2056 2058 28
1647 2056 2059 28
1648 2056 2060 28
1649 2061 2062 28
1650 2061 2063 28
1651 2061 2064 28
1652 2061 2065 28
1653 2066 2067 28
1654 2066 2068 28
1655 2066 2069 28
1656 2066 2070 28
1657 2071 2072 28
1658 2071 2073 28
1659 2071 2074 28
1660 2071 2075 28
1661 2076 2077 28
1662 2076 2078 28
1663 2076 2079 28
1664 2076 2080 28
1665 2081 2082 28
1666 2081 2083 28
1667 2081 2084 28
1668 2081 2085 28
1669 2086 2087 28
1670 2086 2088 28
1671 2086 2089 28
1672 2086 2090 28
1673 2091 2092 28
1674 2091 2093 28
1675 2091 2094 28
1676 2091 2095 28
1677 2096 2097 28
1678 2096 2098 28
1679 2096 2099 28
1680 2096 2100 28
1681 2101 2102 28
1682 2101 2103 28
1683 2101 2104 28
1684 2101 2105 28
1685 2106 2107 28
1686 2106 2108 28
1687 2106 2109 28
1688 2106 2110 28
1689 2111 2112 28
1690 2111 2113 28
1691 2111 2114 28
1692 2111 2115 28
1693 2116 2117 28
1694 2116 2118 28
1695 2116 2119 28
1696 2116 2120 28
1697 2121 2122 28
1698 2121 2123 28
1699 2121 2124 28
1700 2121 2125 28
1701 2126 2127 28
1702 2126 2128 28
1703 2126 2129 28
1704 2126 2130 28
1705 2131 2132 28
1706 2131 2133 28
1707 2131 2134 28
1708 2131 2135 28
1709 2136 2137 28
1710 2136 2138 28
1711 2136 2139 28
1712 2136 2140 28
1713 2141 2142 28
1714 2141 2143 28
1715 2141 2144 28
1716 2141 2145 28
1717 2146 2147 28
1718 2146 2148 28
1719 2146 2149 28
1720 2146 2150 28
1721 2151 2152 28
1722 2151 2153 28
1723 2151 2154 28
1724 2151 2155 28
1725 2156 2157 28
1726 2156 2158 28
1727 2156 2159 28
1728 2156 2160 28
1729 2161 2162 28
1730 2161 2163 28
1731 2161 2164 28
1732 2161 2165 28
1733 2166 2167 28
1734 2166 2168 28
1735 2166 2169 28
1736 2166 2170 28
1737 2171 2172 28
1738 2171 2173 28
1739 2171 2174 28
1740 2171 2175 28
1741 2176 2177 28
1742 2176 2178 28
1743 2176 2179 28
1744 2176 2180 28
1745 2181 2182 28
1746 2181 2183 28
1747 2181 2184 28
1748 2181 2185 28
1749 2186 2187 28
1750 2186 2188 28
1751 2186 2189 28
1752 2186 2190 28
1753 2191 2192 28
1754 2191 2193 28
1755 2191 2194 28
1756 2191 2195 28
1757 2196 2197 28
1758 2196 2198 28
1759 2196 2199 28
1760 2196 2200 28
1761 2201 2202 28
1762 2201 2203 28
1763 2201 2204 28
1764 2201 2205 28
1765 2206 2207 28
1766 2206 2208 28
1767 2206 2209 28
1768 2206 2210 28
1769 2211 2212 28
1770 2211 2213 28
1771 2211 2214 28
1772 2211 2215 28
1773 2216 2217 28
1774 2216 2218 28
1775 2216 2219 28
1776 2216 2220 28
1777 2221 2222 28
1778 2221 2223 28
1779 2221 2224 28
1780 2221 2225 28
1781 2226 2227 28
1782 2226 2228 28
1783 2226 2229 28
1784 2226 2230 28
1785 2231 2232 28
1786 2231 2233 28
1787 2231 2234 28
1788 2231 2235 28
1789 2236 2237 28
1790 2236 2238 28
1791 2236 2239 28
1792 2236 2240 28
1793 2241 2242 28
1794 2241 2243 28
1795 2241 2244 28
1796 2241 2245 28
1797 2246 2247 28
1798 2246 2248 28
1799 2246 2249 28
1800 2246 2250 28
1801 2251 2252 28
1802 2251 2253 28
1803 2251 2254 28
1804 2251 2255 28
1805 2256 2257 28
1806 2256 2258 28
1807 2256 2259 28
1808 2256 2260 28
1809 2261 2262 28
1810 2261 2263 28
1811 2261 2264 28
1812 2261 2265 28
1813 2266 2267 28
1814 2266 2268 28
1815 2266 2269 28
1816 2266 2270 28
1817 2271 2272 28
1818 2271 2273 28
1819 2271 2274 28
1820 2271 2275 28
1821 2276 2277 28
1822 2276 2278 28
1823 2276 2279 28
1824 2276 2280 28
1825 2281 2282 28
1826 2281 2283 28
1827 2281 2284 28
1828 2281 2285 28
1829 2286 2287 28
1830 2286 2288 28
1831 2286 2289 28
1832 2286 2290 28
1833 2291 2292 28
1834 2291 2293 28
1835 2291 2294 28
1836 2291 2295 28
1837 2296 2297 28
1838 2296 2298 28
1839 2296 2299 28
1840 2296 2300 28
1841 2301 2302 28
1842 2301 2303 28
1843 2301 2304 28
1844 2301 2305 28
1845 2306 2307 28
1846 2306 2308 28
1847 2306 2309 28
1848 2306 2310 28
1849 2311 2312 28
1850 2311 2313 28
1851 2311 2314 28
1852 2311 2315 28
1853 2316 2317 28
1854 2316 2318 28
1855 2316 2319 28
1856 2316 2320 28
1857 2321 2322 28
1858 2321 2323 28
1859 2321 2324 28
1860 2321 2325 28
1861 2326 2327 28
1862 2326 2328 28
1863 2326 2329 28
1864 2326 2330 28
1865 2331 2332 28
1866 2331 2333 28
1867 2331 2334 28
1868 2331 2335 28
1869 2336 2337 28
1870 2336 2338 28
1871 2336 2339 28
1872 2336 2340 28
1873 2341 2342 28
1874 2341 2343 28
1875 2341 2344 28
1876 2341 2345 28
1877 2346 2347 28
1878 2346 2348 28
1879 2346 2349 28
1880 2346 2350 28
1881 2351 2352 28
1882 2351 2353 28
1883 2351 2354 28
1884 2351 2355 28
1885 2356 2357 28
1886 2356 2358 28
1887 2356 2359 28
1888 2356 2360 28
1889 2361 2362 28
1890 2361 2363 28
1891 2361 2364 28
1892 2361 2365 28
1893 2366 2367 28
1894 2366 2368 28
1895 2366 2369 28
1896 2366 2370 28
1897 2371 2372 28
1898 2371 2373 28
1899 2371 2374 28
1900 2371 2375 28
1901 2376 2377 28
1902 2376 2378 28
1903 2376 2379 28
1904 2376 2380 28
1905 2381 2382 28
1906 2381 2383 28
1907 2381 2384 28
1908 2381 2385 28
1909 2386 2387 28
1910 2386 2388 28
1911 2386 2389 28
1912 2386 2390 28
1913 2391 2392 28
1914 2391 2393 28
1915 2391 2394 28
1916 2391 2395 28
1917 2396 2397 28
1918 2396 2398 28
1919 2396 2399 28
1920 2396 2400 28
1921 2401 2402 28
1922 2401 2403 28
1923 2401 2404 28
1924 2401 2405 28
1925 2406 2407 28
1926 2406 2408 28
1927 2406 2409 28
1928 2406 2410 28
1929 2411 2412 28
1930 2411 2413 28
1931 2411 2414 28
1932 2411 2415 28
1933 2416 2417 28
1934 2416 2418 28
1935 2416 2419 28
1936 2416 2420 28
1937 2421 2422 28
1938 2421 2423 28
1939 2421 2424 28
1940 2421 2425 28
1941 2426 2427 28
1942 2426 2428 28
1943 2426 2429 28
1944 2426 2430 28
1945 2431 2432 28
1946 2431 2433 28
1947 2431 2434 28
1948 2431 2435 28
1949 2436 2437 28
1950 2436 2438 28
1951 2436 2439 28
1952 2436 2440 28
1953 2441 2442 28
1954 2441 2443 28
1955 2441 2444 28
1956 2441 2445 28
1957 2446 2447 28
1958 2446 2448 28
1959 2446 2449 28
1960 2446 2450 28
1961 2451 2452 28
1962 2451 2453 28
1963 2451 2454 28
1964 2451 2455 28
1965 2456 2457 28
1966 2456 2458 28
1967 2456 2459 28
1968 2456 2460 28
1969 2461 2462 28
1970 2461 2463 28
1971 2461 2464 28
1972 2461 2465 28
1973 2466 2467 28
1974 2466 2468 28
1975 2466 2469 28
1976 2466 2470 28
1977 2471 2472 28
1978 2471 2473 28
1979 2471 2474 28
1980 2471 2475 28
1981 2476 2477 28
1982 2476 2478 28
1983 2476 2479 28
1984 2476 2480 28
1985 2481 2482 28
1986 2481 2483 28
1987 2481 2484 28
1988 2481 2485 28
1989 2486 2487 28
1990 2486 2488 28
1991 2486 2489 28
1992 2486 2490 28
1993 2491 2492 28
1994 2491 2493 28
1995 2491 2494 28
1996 2491 2495 28
1997 2496 2497 28
1998 2496 2498 28
1999 2496 2499 28
2000 2496 2500 28
2001 2501 2502 28
2002 2501 2503 28
2003 2501 2504 28
2004 2501 2505 28
2005 2506 2507 28
2006 2506 2508 28
2007 2506 2509 28
2008 2506 2510 28
2009 2511 2512 28
2010 2511 2513 28
2011 2511 2514 28
2012 2511 2515 28
2013 2516 2517 28
2014 2516 2518 28
2015 2516 2519 28
2016 2516 2520 28
2017 2521 2522 28
2018 2521 2523 28
2019 2521 2524 28
2020 2521 2525 28
2021 2526 2527 28
2022 2526 2528 28
2023 2526 2529 28
2024 2526 2530 28
2025 2531 2532 28
2026 2531 2533 28
2027 2531 2534 28
2028 2531 2535 28
2029 2536 2537 28
2030 2536 2538 28
2031 2536 2539 28
2032 2536 2540 28
2033 2541 2542 28
2034 2541 2543 28
2035 2541 2544 28
2036 2541 2545 28
2037 2546 2547 28
2038 2546 2548 28
2039 2546 2549 28
2040 2546 2550 28
2041 2551 2552 28
2042 2551 2553 28
2043 2551 2554 28
2044 2551 2555 28
2045 2556 2557 28
2046 2556 2558 28
2047 2556 2559 28
2048 2556 2560 28
2049 2561 2562 28
2050 2561 2563 28
2051 2561 2564 28
2052 2561 2565 28
2053 2566 2567 28
2054 2566 2568 28
2055 2566 2569 28
2056 2566 2570 28
2057 2571 2572 28
2058 2571 2573 28
2059 2571 2574 28
2060 2571 2575 28
2061 2576 2577 28
2062 2576 2578 28
2063 2576 2579 28
2064 2576 2580 28
2065 2581 2582 28
2066 2581 2583 28
2067 2581 2584 28
2068 2581 2585 28
2069 2586 2587 28
2070 2586 2588 28
2071 2586 2589 28
2072 2586 2590 28
2073 2591 2592 28
2074 2591 2593 28
2075 2591 2594 28
2076 2591 2595 28
2077 2596 2597 28
2078 2596 2598 28
2079 2596 2599 28
2080 2596 2600 28
2081 2601 2602 28
2082 2601 2603 28
2083 2601 2604 28
2084 2601 2605 28
2085 2606 2607 28
2086 2606 2608 28
2087 2606 2609 28
2088 2606 2610 28
2089 2611 2612 28
2090 2611 2613 28
2091 2611 2614 28
2092 2611 2615 28
2093 2616 2617 28
2094 2616 2618 28
2095 2616 2619 28
2096 2616 2620 28
2097 2621 2622 28
2098 2621 2623 28
2099 2621 2624 28
2100 2621 2625 28
2101 2626 2627 28
2102 2626 2628 28
2103 2626 2629 28
2104 2626 2630 28
2105 2631 2632 28
2106 2631 2633 28
2107 2631 2634 28
2108 2631 2635 28
2109 2636 2637 28
2110 2636 2638 28
2111 2636 2639 28
2112 2636 2640 28
2113 2641 2642 28
2114 2641 2643 28
2115 2641 2644 28
2116 2641 2645 28
2117 2646 2647 28
2118 2646 2648 28
2119 2646 2649 28
2120 2646 2650 28
2121 2651 2652 28
2122 2651 2653 28
2123 2651 2654 28
2124 2651 2655 28
2125 2656 2657 28
2126 2656 2658 28
2127 2656 2659 28
2128 2656 2660 28
2129 2661 2662 28
2130 2661 2663 28
2131 2661 2664 28
2132 2661 2665 28
2133 2666 2667 28
2134 2666 2668 28
2135 2666 2669 28
2136 2666 2670 28
2137 2671 2672 28
2138 2671 2673 28
2139 2671 2674 28
2140 2671 2675 28
2141 2676 2677 28
2142 2676 2678 28
2143 2676 2679 28
2144 2676 2680 28
2145 2681 2682 28
2146 2681 2683 28
2147 2681 2684 28
2148 2681 2685 28
2149 2686 2687 28
2150 2686 2688 28
2151 2686 2689 28
2152 2686 2690 28
2153 2691 2692 28
2154 2691 2693 28
2155 2691 2694 28
2156 2691 2695 28
2157 2696 2697 28
2158 2696 2698 28
2159 2696 2699 28
2160 2696 2700 28
2161 2701 2702 28
2162 2701 2703 28
2163 2701 2704 28
2164 2701 2705 28
2165 2706 2707 28
2166 2706 2708 28
2167 2706 2709 28
2168 2706 2710 28
2169 2711 2712 28
2170 2711 2713 28
2171 2711 2714 28
2172 2711 2715 28
2173 2716 2717 28
2174 2716 2718 28
2175 2716 2719 28
2176 2716 2720 28
2177 2721 2722 28
2178 2721 2723 28
2179 2721 2724 28
2180 2721 2725 28
2181 2726 2727 28
2182 2726 2728 28
2183 2726 2729 28
2184 2726 2730 28
2185 2731 2732 28
2186 2731 2733 28
2187 2731 2734 28
2188 2731 2735 28
2189 2736 2737 28
2190 2736 2738 28
2191 2736 2739 28
2192 2736 2740 28
2193 2741 2742 28
2194 2741 2743 28
2195 2741 2744 28
2196 2741 2745 28
2197 2746 2747 28
2198 2746 2748 28
2199 2746 2749 28
2200 2746 2750 28
2201 2751 2752 28
2202 2751 2753 28
2203 2751 2754 28
2204 2751 2755 28
2205 2756 2757 28
2206 2756 2758 28
2207 2756 2759 28
2208 2756 2760 28
2209 2761 2762 28
2210 2761 2763 28
2211 2761 2764 28
2212 2761 2765 28
2213 2766 2767 28
2214 2766 2768 28
2215 2766 2769 28
2216 2766 2770 28
2217 2771 2772 28
2218 2771 2773 28
2219 2771 2774 28
2220 2771 2775 28
2221 2776 2777 28
2222 2776 2778 28
2223 2776 2779 28
2224 2776 2780 28
2225 2781 2782 28
2226 2781 2783 28
2227 2781 2784 28
2228 2781 2785 28
2229 2786 2787 28
2230 2786 2788 28
2231 2786 2789 28
2232 2786 2790 28
2233 2791 2792 28
2234 2791 2793 28
2235 2791 2794 28
2236 2791 2795 28
2237 2796 2797 28
2238 2796 2798 28
2239 2796 2799 28
2240 2796 2800 28
2241 2801 2802 28
2242 2801 2803 28
2243 2801 2804 28
2244 2801 2805 28
2245 2806 2807 28
2246 2806 2808 28
2247 2806 2809 28
2248 2806 2810 28
2249 2811 2812 28
2250 2811 2813 28
2251 2811 2814 28
2252 2811 2815 28
2253 2816 2817 28
2254 2816 2818 28
2255 2816 2819 28
2256 2816 2820 28
2257 2821 2822 28
2258 2821 2823 28
2259 2821 2824 28
2260 2821 2825 28
2261 2826 2827 28
2262 2826 2828 28
2263 2826 2829 28
2264 2826 2830 28
2265 2831 2832 28
2266 2831 2833 28
2267 2831 2834 28
2268 2831 2835 28
2269 2836 2837 28
2270 2836 2838 28
2271 2836 2839 28
2272 2836 2840 28
2273 2841 2842 28
2274 2841 2843 28
2275 2841 2844 28
2276 2841 2845 28
2277 2846 2847 28
2278 2846 2848 28
2279 2846 2849 28
2280 2846 2850 28
2281 2851 2852 28
2282 2851 2853 28
2283 2851 2854 28
2284 2851 2855 28
2285 2856 2857 28
2286 2856 2858 28
2287 2856 2859 28
2288 2856 2860 28
2289 2861 2862 28
2290 2861 2863 28
2291 2861 2864 28
2292 2861 2865 28
2293 2866 2867 28
2294 2866 2868 28
2295 2866 2869 28
2296 2866 2870 28
2297 2871 2872 28
2298 2871 2873 28
2299 2871 2874 28
2300 2871 2875 28
2301 2876 2877 28
2302 2876 2878 28
2303 2876 2879 28
2304 2876 2880 28
2305 2881 2882 28
2306 2881 2883 28
2307 2881 2884 28
2308 2881 2885 28
2309 2886 2887 28
2310 2886 2888 28
2311 2886 2889 28
2312 2886 2890 28
2313 2891 2892 28
2314 2891 2893 28
2315 2891 2894 28
2316 2891 2895 28
2317 2896 2897 28
2318 2896 2898 28
2319 2896 2899 28
2320 2896 2900 28
2321 2901 2902 28
2322 2901 2903 28
2323 2901 2904 28
2324 2901 2905 28
2325 2906 2907 28
2326 2906 2908 28
2327 2906 2909 28
2328 2906 2910 28
2329 2911 2912 28
2330 2911 2913 28
2331 2911 2914 28
2332 2911 2915 28
2333 2916 2917 28
2334 2916 2918 28
2335 2916 2919 28
2336 2916 2920 28
2337 2921 2922 28
2338 2921 2923 28
2339 2921 2924 28
2340 2921 2925 28
2341 2926 2927 28
2342 2926 2928 28
2343 2926 2929 28
2344 2926 2930 28
2345 2931 2932 28
2346 2931 2933 28
2347 2931 2934 28
2348 2931 2935 28
2349 2936 2937 28
2350 2936 2938 28
2351 2936 2939 28
2352 2936 2940 28
2353 2941 2942 28
2354 2941 2943 28
2355 2941 2944 28
2356 2941 2945 28
2357 2946 2947 28
2358 2946 2948 28
2359 2946 2949 28
2360 2946 2950 28
2361 2951 2952 28
2362 2951 2953 28
2363 2951 2954 28
2364 2951 2955 28
2365 2956 2957 28
2366 2956 2958 28
2367 2956 2959 28
2368 2956 2960 28
2369 2961 2962 28
2370 2961 2963 28
2371 2961 2964 28
2372 2961 2965 28
2373 2966 2967 28
2374 2966 2968 28
2375 2966 2969 28
2376 2966 2970 28
2377 2971 2972 28
2378 2971 2973 28
2379 2971 2974 28
2380 2971 2975 28
2381 2976 2977 28
2382 2976 2978 28
2383 2976 2979 28
2384 2976 2980 28
2385 2981 2982 28
2386 2981 2983 28
2387 2981 2984 28
2388 2981 2985 28
2389 2986 2987 28
2390 2986 2988 28
2391 2986 2989 28
2392 2986 2990 28
2393 2991 2992 28
2394 2991 2993 28
2395 2991 2994 28
2396 2991 2995 28
2397 2996 2997 28
2398 2996 2998 28
2399 2996 2999 28
2400 2996 3000 28
2401 3001 3002 28
2402 3001 3003 28
2403 3001 3004 28
2404 3001 3005 28
2405 3006 3007 28
2406 3006 3008 28
2407 3006 3009 28
2408 3006 3010 28
2409 3011 3012 28
2410 3011 3013 28
2411 3011 3014 28
2412 3011 3015 28
2413 3016 3017 28
2414 3016 3018 28
2415 3016 3019 28
2416 3016 3020 28
2417 3021 3022 28
2418 3021 3023 28
2419 3021 3024 28
2420 3021 3025 28
2421 3026 3027 28
2422 3026 3028 28
2423 3026 3029 28
2424 3026 3030 28
2425 3031 3032 28
2426 3031 3033 28
2427 3031 3034 28
2428 3031 3035 28
2429 3036 3037 28
2430 3036 3038 28
2431 3036 3039 28
2432 3036 3040 28
2433 3041 3042 28
2434 3041 3043 28
2435 3041 3044 28
2436 3041 3045 28
2437 3046 3047 28
2438 3046 3048 28
2439 3046 3049 28
2440 3046 3050 28
2441 3051 3052 28
2442 3051 3053 28
2443 3051 3054 28
2444 3051 3055 28
2445 3056 3057 28
2446 3056 3058 28
2447 3056 3059 28
2448 3056 3060 28
2449 3061 3062 28
2450 3061 3063 28
2451 3061 3064 28
2452 3061 3065 28
2453 3066 3067 28
2454 3066 3068 28
2455 3066 3069 28
2456 3066 3070 28
2457 3071 3072 28
2458 3071 3073 28
2459 3071 3074 28
2460 3071 3075 28
2461 3076 3077 28
2462 3076 3078 28
2463 3076 3079 28
2464 3076 3080 28
2465 3081 3082 28
2466 3081 3083 28
2467 3081 3084 28
2468 3081 3085 28
2469 3086 3087 28
2470 3086 3088 28
2471 3086 3089 28
2472 3086 3090 28
2473 3091 3092 28
2474 3091 3093 28
2475 3091 3094 28
2476 3091 3095 28
2477 3096 3097 28
2478 3096 3098 28
2479 3096 3099 28
2480 3096 3100 28
2481 3101 3102 28
2482 3101 3103 28
2483 3101 3104 28
2484 3101 3105 28
2485 3106 3107 28
2486 3106 3108 28
2487 3106 3109 28
2488 3106 3110 28
2489 3111 3112 28
2490 3111 3113 28
2491 3111 3114 28
2492 3111 3115 28
2493 3116 3117 28
2494 3116 3118 28
2495 3116 3119 28
2496 3116 3120 28
2497 3121 3122 28
2498 3121 3123 28
2499 3121 3124 28
2500 3121 3125 28
2501 3126 3127 28
2502 3126 3128 28
2503 3126 3129 28
2504 3126 3130 28
2505 3131 3132 28
2506 3131 3133 28
2507 3131 3134 28
2508 3131 3135 28
2509 3136 3137 28
2510 3136 3138 28
2511 3136 3139 28
2512 3136 3140 28
2513 3141 3142 28
2514 3141 3143 28
2515 3141 3144 28
2516 3141 3145 28
2517 3146 3147 28
2518 3146 3148 28
2519 3146 3149 28
2520 3146 3150 28
2521 3151 3152 28
2522 3151 3153 28
2523 3151 3154 28
2524 3151 3155 28
2525 3156 3157 28
2526 3156 3158 28
2527 3156 3159 28
2528 3156 3160 28
2529 3161 3162 28
2530 3161 3163 28
2531 3161 3164 28
2532 3161 3165 28
2533 3166 3167 28
2534 3166 3168 28
2535 3166 3169 28
2536 3166 3170 28
2537 3171 3172 28
2538 3171 3173 28
2539 3171 3174 28
2540 3171 3175 28
2541 3176 3177 28
2542 3176 3178 28
2543 3176 3179 28
2544 3176 3180 28
2545 3181 3182 28
2546 3181 3183 28
2547 3181 3184 28
2548 3181 3185 28
2549 3186 3187 28
2550 3186 3188 28
2551 3186 3189 28
2552 3186 3190 28
2553 3191 3192 28
2554 3191 3193 28
2555 3191 3194 28
2556 3191 3195 28
2557 3196 3197 28
2558 3196 3198 28
2559 3196 3199 28
2560 3196 3200 28
2561 3201 3202 28
2562 3201 3203 28
2563 3201 3204 28
2564 3201 3205 28
2565 3206 3207 28
2566 3206 3208 28
2567 3206 3209 28
2568 3206 3210 28
2569 3211 3212 28
2570 3211 3213 28
2571 3211 3214 28
2572 3211 3215 28
2573 3216 3217 28
2574 3216 3218 28
2575 3216 3219 28
2576 3216 3220 28
2577 3221 3222 28
2578 3221 3223 28
2579 3221 3224 28
2580 3221 3225 28
2581 3226 3227 28
2582 3226 3228 28
2583 3226 3229 28
2584 3226 3230 28
2585 3231 3232 28
2586 3231 3233 28
2587 3231 3234 28
2588 3231 3235 28
2589 3236 3237 28
2590 3236 3238 28
2591 3236 3239 28
2592 3236 3240 28
2593 3241 3242 28
2594 3241 3243 28
2595 3241 3244 28
2596 3241 3245 28
2597 3246 3247 28
2598 3246 3248 28
2599 3246 3249 28
2600 3246 3250 28
2601 3251 3252 28
2602 3251 3253 28
2603 3251 3254 28
2604 3251 3255 28
2605 3256 3257 28
2606 3256 3258 28
2607 3256 3259 28
2608 3256 3260 28
2609 3261 3262 28
2610 3261 3263 28
2611 3261 3264 28
2612 3261 3265 28
2613 3266 3267 28
2614 3266 3268 28
2615 3266 3269 28
2616 3266 3270 28
2617 3271 3272 28
2618 3271 3273 28
2619 3271 3274 28
2620 3271 3275 28
2621 3276 3277 28
2622 3276 3278 28
2623 3276 3279 28
2624 3276 3280 28
2625 3281 3282 28
2626 3281 3283 28
2627 3281 3284 28
2628 3281 3285 28
2629 3286 3287 28
2630 3286 3288 28
2631 3286 3289 28
2632 3286 3290 28
2633 3291 3292 28
2634 3291 3293 28
2635 3291 3294 28
2636 3291 3295 28
2637 3296 3297 28
2638 3296 3298 28
2639 3296 3299 28
2640 3296 3300 28
2641 3301 3302 28
2642 3301 3303 28
2643 3301 3304 28
2644 3301 3305 28
2645 3306 3307 28
2646 3306 3308 28
2647 3306 3309 28
2648 3306 3310 28
2649 3311 3312 28
2650 3311 3313 28
2651 3311 3314 28
2652 3311 3315 28
2653 3316 3317 28
2654 3316 3318 28
2655 3316 3319 28
2656 3316 3320 28
2657 3321 3322 28
2658 3321 3323 28
2659 3321 3324 28
2660 3321 3325 28
2661 3326 3327 28
2662 3326 3328 28
2663 3326 3329 28
2664 3326 3330 28
2665 3331 3332 28
2666 3331 3333 28
2667 3331 3334 28
2668 3331 3335 28
2669 3336 3337 28
2670 3336 3338 28
2671 3336 3339 28
2672 3336 3340 28
2673 3341 3342 28
2674 3341 3343 28
2675 3341 3344 28
2676 3341 3345 28
2677 3346 3347 28
2678 3346 3348 28
2679 3346 3349 28
2680 3346 3350 28
2681 3351 3352 28
2682 3351 3353 28
2683 3351 3354 28
2684 3351 3355 28
2685 3356 3357 28
2686 3356 3358 28
2687 3356 3359 28
2688 3356 3360 28
2689 3361 3362 28
2690 3361 3363 28
2691 3361 3364 28
2692 3361 3365 28
2693 3366 3367 28
2694 3366 3368 28
2695 3366 3369 28
2696 3366 3370 28
2697 3371 3372 28
2698 3371 3373 28
2699 3371 3374 28
2700 3371 3375 28
2701 3376 3377 28
2702 3376 3378 28
2703 3376 3379 28
2704 3376 3380 28
2705 3381 3382 28
2706 3381 3383 28
2707 3381 3384 28
2708 3381 3385 28
2709 3386 3387 28
2710 3386 3388 28
2711 3386 3389 28
2712 3386 3390 28
2713 3391 3392 28
2714 3391 3393 28
2715 3391 3394 28
2716 3391 3395 28
2717 3396 3397 28
2718 3396 3398 28
2719 3396 3399 28
2720 3396 3400 28
2721 3401 3402 28
2722 3401 3403 28
2723 3401 3404 28
2724 3401 3405 28
2725 3406 3407 28
2726 3406 3408 28
2727 3406 3409 28
2728 3406 3410 28
2729 3411 3412 28
2730 3411 3413 28
2731 3411 3414 28
2732 3411 3415 28
2733 3416 3417 28
2734 3416 3418 28
2735 3416 3419 28
2736 3416 3420 28
2737 3421 3422 28
2738 3421 3423 28
2739 3421 3424 28
2740 3421 3425 28
2741 3426 3427 28
2742 3426 3428 28
2743 3426 3429 28
2744 3426 3430 28
2745 3431 3432 28
2746 3431 3433 28
2747 3431 3434 28
2748 3431 3435 28
2749 3436 3437 28
2750 3436 3438 28
2751 3436 3439 28
2752 3436 3440 28
2753 3441 3442 28
2754 3441 3443 28
2755 3441 3444 28
2756 3441 3445 28
2757 3446 3447 28
2758 3446 3448 28
2759 3446 3449 28
2760 3446 3450 28
2761 3451 3452 28
2762 3451 3453 28
2763 3451 3454 28
2764 3451 3455 28
2765 3456 3457 28
2766 3456 3458 28
2767 3456 3459 28
2768 3456 3460 28
2769 3461 3462 28
2770 3461 3463 28
2771 3461 3464 28
2772 3461 3465 28
2773 3466 3467 28
2774 3466 3468 28
2775 3466 3469 28
2776 3466 3470 28
2777 3471 3472 28
2778 3471 3473 28
2779 3471 3474 28
2780 3471 3475 28
2781 3476 3477 28
2782 3476 3478 28
2783 3476 3479 28
2784 3476 3480 28
2785 3481 3482 28
2786 3481 3483 28
2787 3481 3484 28
2788 3481 3485 28
2789 3486 3487 28
2790 3486 3488 28
2791 3486 3489 28
2792 3486 3490 28
2793 3491 3492 28
2794 3491 3493 28
2795 3491 3494 28
2796 3491 3495 28
2797 3496 3497 28
2798 3496 3498 28
2799 3496 3499 28
2800 3496 3500 28
2801 3501 3502 28
2802 3501 3503 28
2803 3501 3504 28
2804 3501 3505 28
2805 3506 3507 28
2806 3506 3508 28
2807 3506 3509 28
2808 3506 3510 28
2809 3511 3512 28
2810 3511 3513 28
2811 3511 3514 28
2812 3511 3515 28
2813 3516 3517 28
2814 3516 3518 28
2815 3516 3519 28
2816 3516 3520 28
2817 3521 3522 28
2818 3521 3523 28
2819 3521 3524 28
2820 3521 3525 28
2821 3526 3527 28
2822 3526 3528 28
2823 3526 3529 28
2824 3526 3530 28
2825 3531 3532 28
2826 3531 3533 28
2827 3531 3534 28
2828 3531 3535 28
2829 3536 3537 28
2830 3536 3538 28
2831 3536 3539 28
2832 3536 3540 28
2833 3541 3542 28
2834 3541 3543 28
2835 3541 3544 28
2836 3541 3545 28
2837 3546 3547 28
2838 3546 3548 28
2839 3546 3549 28
2840 3546 3550 28
2841 3551 3552 28
2842 3551 3553 28
2843 3551 3554 28
2844 3551 3555 28
2845 3556 3557 28
2846 3556 3558 28
2847 3556 3559 28
2848 3556 3560 28
2849 3561 3562 28
2850 3561 3563 28
2851 3561 3564 28
2852 3561 3565 28
2853 3566 3567 28
2854 3566 3568 28
2855 3566 3569 28
2856 3566 3570 28
2857 3571 3572 28
2858 3571 3573 28
2859 3571 3574 28
2860 3571 3575 28
2861 3576 3577 28
2862 3576 3578 28
2863 3576 3579 28
2864 3576 3580 28
2865 3581 3582 28
2866 3581 3583 28
2867 3581 3584 28
2868 3581 3585 28
2869 3586 3587 28
2870 3586 3588 28
2871 3586 3589 28
2872 3586 3590 28
2873 3591 3592 28
2874 3591 3593 28
2875 3591 3594 28
2876 3591 3595 28
2877 3596 3597 28
2878 3596 3598 28
2879 3596 3599 28
2880 3596 3600 28
2881 3601 3602 28
2882 3601 3603 28
2883 3601 3604 28
2884 3601 3605 28
2885 3606 3607 28
2886 3606 3608 28
2887 3606 3609 28
2888 3606 3610 28
2889 3611 3612 28
2890 3611 3613 28
2891 3611 3614 28
2892 3611 3615 28
2893 3616 3617 28
2894 3616 3618 28
2895 3616 3619 28
2896 3616 3620 28
2897 3621 3622 28
2898 3621 3623 28
2899 3621 3624 28
2900 3621 3625 28
2901 3626 3627 28
2902 3626 3628 28
2903 3626 3629 28
2904 3626 3630 28
2905 3631 3632 28
2906 3631 3633 28
2907 3631 3634 28
2908 3631 3635 28
2909 3636 3637 28
2910 3636 3638 28
2911 3636 3639 28
2912 3636 3640 28
2913 3641 3642 28
2914 3641 3643 28
2915 3641 3644 28
2916 3641 3645 28
2917 3646 3647 28
2918 3646 3648 28
2919 3646 3649 28
2920 3646 3650 28
2921 3651 3652 28
2922 3651 3653 28
2923 3651 3654 28
2924 3651 3655 28
2925 3656 3657 28
2926 3656 3658 28
2927 3656 3659 28
2928 3656 3660 28
2929 3661 3662 28
2930 3661 3663 28
2931 3661 3664 28
2932 3661 3665 28
2933 3666 3667 28
2934 3666 3668 28
2935 3666 3669 28
2936 3666 3670 28
2937 3671 3672 28
2938 3671 3673 28
2939 3671 3674 28
2940 3671 3675 28
2941 3676 3677 28
2942 3676 3678 28
2943 3676 3679 28
2944 3676 3680 28
2945 3681 3682 28
2946 3681 3683 28
2947 3681 3684 28
2948 3681 3685 28
2949 3686 3687 28
2950 3686 3688 28
2951 3686 3689 28
2952 3686 3690 28
2953 3691 3692 28
2954 3691 3693 28
2955 3691 3694 28
2956 3691 3695 28
2957 3696 3697 28
2958 3696 3698 28
2959 3696 3699 28
2960 3696 3700 28
2961 3701 3702 28
2962 3701 3703 28
2963 3701 3704 28
2964 3701 3705 28
2965 3706 3707 28
2966 3706 3708 28
2967 3706 3709 28
2968 3706 3710 28
2969 3711 3712 28
2970 3711 3713 28
2971 3711 3714 28
2972 3711 3715 28
2973 3716 3717 28
2974 3716 3718 28
2975 3716 3719 28
2976 3716 3720 28
2977 3721 3722 28
2978 3721 3723 28
2979 3721 3724 28
2980 3721 3725 28
2981 3726 3727 28
2982 3726 3728 28
2983 3726 3729 28
2984 3726 3730 28
2985 3731 3732 28
2986 3731 3733 28
2987 3731 3734 28
2988 3731 3735 28
2989 3736 3737 28
2990 3736 3738 28
2991 3736 3739 28
2992 3736 3740 28
2993 3741 3742 28
2994 3741 3743 28
2995 3741 3744 28
2996 3741 3745 28
2997 3746 3747 28
2998 3746 3748 28
2999 3746 3749 28
3000 3746 3750 28
3001 3751 3752 28
3002 3751 3753 28
3003 3751 3754 28
3004 3751 3755 28
3005 3756 3757 28
3006 3756 3758 28
3007 3756 3759 28
3008 3756 3760 28
3009 3761 3762 28
3010 3761 3763 28
3011 3761 3764 28
3012 3761 3765 28
3013 3766 3767 28
3014 3766 3768 28
3015 3766 3769 28
3016 3766 3770 28
3017 3771 3772 28
3018 3771 3773 28
3019 3771 3774 28
3020 3771 3775 28
3021 3776 3777 28
3022 3776 3778 28
3023 3776 3779 28
3024 3776 3780 28
3025 3781 3782 28
3026 3781 3783 28
3027 3781 3784 28
3028 3781 3785 28
3029 3786 3787 28
3030 3786 3788 28
3031 3786 3789 28
3032 3786 3790 28
3033 3791 3792 28
3034 3791 3793 28
3035 3791 3794 28
3036 3791 3795 28
3037 3796 3797 28
3038 3796 3798 28
3039 3796 3799 28
3040 3796 3800 28
3041 3801 3802 28
3042 3801 3803 28
3043 3801 3804 28
3044 3801 3805 28
3045 3806 3807 28
3046 3806 3808 28
3047 3806 3809 28
3048 3806 3810 28
3049 3811 3812 28
3050 3811 3813 28
3051 3811 3814 28
3052 3811 3815 28
3053 3816 3817 28
3054 3816 3818 28
3055 3816 3819 28
3056 3816 3820 28
3057 3821 3822 28
3058 3821 3823 28
3059 3821 3824 28
3060 3821 3825 28
3061 3826 3827 28
3062 3826 3828 28
3063 3826 3829 28
3064 3826 3830 28
3065 3831 3832 28
3066 3831 3833 28
3067 3831 3834 28
3068 3831 3835 28
3069 3836 3837 28
3070 3836 3838 28
3071 3836 3839 28
3072 3836 3840 28
3073 3841 3842 28
3074 3841 3843 28
3075 3841 3844 28
3076 3841 3845 28
3077 3846 3847 28
3078 3846 3848 28
3079 3846 3849 28
3080 3846 3850 28
3081 3851 3852 28
3082 3851 3853 28
3083 3851 3854 28
3084 3851 3855 28
3085 3856 3857 28
3086 3856 3858 28
3087 3856 3859 28
3088 3856 3860 28
3089 3861 3862 28
3090 3861 3863 28
3091 3861 3864 28
3092 3861 3865 28
3093 3866 3867 28
3094 3866 3868 28
3095 3866 3869 28
3096 3866 3870 28
3097 3871 3872 28
3098 3871 3873 28
3099 3871 3874 28
3100 3871 3875 28
3101 3876 3877 28
3102 3876 3878 28
3103 3876 3879 28
3104 3876 3880 28
3105 3881 3882 28
3106 3881 3883 28
3107 3881 3884 28
3108 3881 3885 28
3109 3886 3887 28
3110 3886 3888 28
3111 3886 3889 28
3112 3886 3890 28
3113 3891 3892 28
3114 3891 3893 28
3115 3891 3894 28
3116 3891 3895 28
3117 3896 3897 28
3118 3896 3898 28
3119 3896 3899 28
3120 3896 3900 28
3121 3901 3902 28
3122 3901 3903 28
3123 3901 3904 28
3124 3901 3905 28
3125 3906 3907 28
3126 3906 3908 28
3127 3906 3909 28
3128 3906 3910 28
3129 3911 3912 28
3130 3911 3913 28
3131 3911 3914 28
3132 3911 3915 28
3133 3916 3917 28
3134 3916 3918 28
3135 3916 3919 28
3136 3916 3920 28
3137 3921 3922 28
3138 3921 3923 28
3139 3921 3924 28
3140 3921 3925 28
3141 3926 3927 28
3142 3926 3928 28
3143 3926 3929 28
3144 3926 3930 28
3145 3931 3932 28
3146 3931 3933 28
3147 3931 3934 28
3148 3931 3935 28
3149 3936 3937 28
3150 3936 3938 28
3151 3936 3939 28
3152 3936 3940 28
3153 3941 3942 28
3154 3941 3943 28
3155 3941 3944 28
3156 3941 3945 28
3157 3946 3947 28
3158 3946 3948 28
3159 3946 3949 28
3160 3946 3950 28
3161 3951 3952 28
3162 3951 3953 28
3163 3951 3954 28
3164 3951 3955 28
3165 3956 3957 28
3166 3956 3958 28
3167 3956 3959 28
3168 3956 3960 28
3169 3961 3962 28
3170 3961 3963 28
3171 3961 3964 28
3172 3961 3965 28
3173 3966 3967 28
3174 3966 3968 28
3175 3966 3969 28
3176 3966 3970 28
3177 3971 3972 28
3178 3971 3973 28
3179 3971 3974 28
3180 3971 3975 28
3181 3976 3977 28
3182 3976 3978 28
3183 3976 3979 28
3184 3976 3980 28
3185 3981 3982 28
3186 3981 3983 28
3187 3981 3984 28
3188 3981 3985 28
3189 3986 3987 28
3190 3986 3988 28
3191 3986 3989 28
3192 3986 3990 28
3193 3991 3992 28
3194 3991 3993 28
3195 3991 3994 28
3196 3991 3995 28
3197 3996 3997 28
3198 3996 3998 28
3199 3996 3999 28
3200 3996 4000 28
3201 4001 4002 28
3202 4001 4003 28
3203 4001 4004 28
3204 4001 4005 28
3205 4006 4007 28
3206 4006 4008 28
3207 4006 4009 28
3208 4006 4010 28
3209 4011 4012 28
3210 4011 4013 28
3211 4011 4014 28
3212 4011 4015 28
3213 4016 4017 28
3214 4016 4018 28
3215 4016 4019 28
3216 4016 4020 28
3217 4021 4022 28
3218 4021 4023 28
3219 4021 4024 28
3220 4021 4025 28
3221 4026 4027 28
3222 4026 4028 28
3223 4026 4029 28
3224 4026 4030 28
3225 4031 4032 28
3226 4031 4033 28
3227 4031 4034 28
3228 4031 4035 28
3229 4036 4037 28
3230 4036 4038 28
3231 4036 4039 28
3232 4036 4040 28
3233 4041 4042 28
3234 4041 4043 28
3235 4041 4044 28
3236 4041 4045 28
3237 4046 4047 28
3238 4046 4048 28
3239 4046 4049 28
3240 4046 4050 28
3241 4051 4052 28
3242 4051 4053 28
3243 4051 4054 28
3244 4051 4055 28
3245 4056 4057 28
3246 4056 4058 28
3247 4056 4059 28
3248 4056 4060 28
3249 4061 4062 28
3250 4061 4063 28
3251 4061 4064 28
3252 4061 4065 28
3253 4066 4067 28
3254 4066 4068 28
3255 4066 4069 28
3256 4066 4070 28
3257 4071 4072 28
3258 4071 4073 28
3259 4071 4074 28
3260 4071 4075 28
3261 4076 4077 28
3262 4076 4078 28
3263 4076 4079 28
3264 4076 4080 28
3265 4081 4082 28
3266 4081 4083 28
3267 4081 4084 28
3268 4081 4085 28
3269 4086 4087 28
3270 4086 4088 28
3271 4086 4089 28
3272 4086 4090 28
3273 4091 4092 28
3274 4091 4093 28
3275 4091 4094 28
3276 4091 4095 28
3277 4096 4097 28
3278 4096 4098 28
3279 4096 4099 28
3280 4096 4100 28
3281 4101 4102 28
3282 4101 4103 28
3283 4101 4104 28
3284 4101 4105 28
3285 4106 4107 28
3286 4106 4108 28
3287 4106 4109 28
3288 4106 4110 28
3289 4111 4112 28
3290 4111 4113 28
3291 4111 4114 28
3292 4111 4115 28
3293 4116 4117 28
3294 4116 4118 28
3295 4116 4119 28
3296 4116 4120 28
3297 4121 4122 28
3298 4121 4123 28
3299 4121 4124 28
3300 4121 4125 28
3301 4126 4127 28
3302 4126 4128 28
3303 4126 4129 28
3304 4126 4130 28
3305 4131 4132 28
3306 4131 4133 28
3307 4131 4134 28
3308 4131 4135 28
3309 4136 4137 28
3310 4136 4138 28
3311 4136 4139 28
3312 4136 4140 28
3313 4141 4142 28
3314 4141 4143 28
3315 4141 4144 28
3316 4141 4145 28
3317 4146 4147 28
3318 4146 4148 28
3319 4146 4149 28
3320 4146 4150 28
3321 4151 4152 28
3322 4151 4153 28
3323 4151 4154 28
3324 4151 4155 28
3325 4156 4157 28
3326 4156 4158 28
3327 4156 4159 28
3328 4156 4160 28
3329 4161 4162 28
3330 4161 4163 28
3331 4161 4164 28
3332 4161 4165 28
3333 4166 4167 28
3334 4166 4168 28
3335 4166 4169 28
3336 4166 4170 28
3337 4171 4172 28
3338 4171 4173 28
3339 4171 4174 28
3340 4171 4175 28
3341 4176 4177 28
3342 4176 4178 28
3343 4176 4179 28
3344 4176 4180 28
3345 4181 4182 28
3346 4181 4183 28
3347 4181 4184 28
3348 4181 4185 28
3349 4186 4187 28
3350 4186 4188 28
3351 4186 4189 28
3352 4186 4190 28
3353 4191 4192 28
3354 4191 4193 28
3355 4191 4194 28
3356 4191 4195 28
3357 4196 4197 28
3358 4196 4198 28
3359 4196 4199 28
3360 4196 4200 28
3361 4201 4202 28
3362 4201 4203 28
3363 4201 4204 28
3364 4201 4205 28
3365 4206 4207 28
3366 4206 4208 28
3367 4206 4209 28
3368 4206 4210 28
3369 4211 4212 28
3370 4211 4213 28
3371 4211 4214 28
3372 4211 4215 28
3373 4216 4217 28
3374 4216 4218 28
3375 4216 4219 28
3376 4216 4220 28
3377 4221 4222 28
3378 4221 4223 28
3379 4221 4224 28
3380 4221 4225 28
3381 4226 4227 28
3382 4226 4228 28
3383 4226 4229 28
3384 4226 4230 28
3385 4231 4232 28
3386 4231 4233 28
3387 4231 4234 28
3388 4231 4235 28
3389 4236 4237 28
3390 4236 4238 28
3391 4236 4239 28
3392 4236 4240 28
3393 4241 4242 28
3394 4241 4243 28
3395 4241 4244 28
3396 4241 4245 28
3397 4246 4247 28
3398 4246 4248 28
3399 4246 4249 28
3400 4246 4250 28
3401 4251 4252 28
3402 4251 4253 28
3403 4251 4254 28
3404 4251 4255 28
3405 4256 4257 28
3406 4256 4258 28
3407 4256 4259 28
3408 4256 4260 28
3409 4261 4262 28
3410 4261 4263 28
3411 4261 4264 28
3412 4261 4265 28
3413 4266 4267 28
3414 4266 4268 28
3415 4266 4269 28
3416 4266 4270 28
3417 4271 4272 28
3418 4271 4273 28
3419 4271 4274 28
3420 4271 4275 28
3421 4276 4277 28
3422 4276 4278 28
3423 4276 4279 28
3424 4276 4280 28
3425 4281 4282 28
3426 4281 4283 28
3427 4281 4284 28
3428 4281 4285 28
3429 4286 4287 28
3430 4286 4288 28
3431 4286 4289 28
3432 4286 4290 28
3433 4291 4292 28
3434 4291 4293 28
3435 4291 4294 28
3436 4291 4295 28
3437 4296 4297 28
3438 4296 4298 28
3439 4296 4299 28
3440 4296 4300 28
3441 4301 4302 28
3442 4301 4303 28
3443 4301 4304 28
3444 4301 4305 28
3445 4306 4307 28
3446 4306 4308 28
3447 4306 4309 28
3448 4306 4310 28
3449 4311 4312 28
3450 4311 4313 28
3451 4311 4314 28
3452 4311 4315 28
3453 4316 4317 28
3454 4316 4318 28
3455 4316 4319 28
3456 4316 4320 28
3457 4321 4322 28
3458 4321 4323 28
3459 4321 4324 28
3460 4321 4325 28
3461 4326 4327 28
3462 4326 4328 28
3463 4326 4329 28
3464 4326 4330 28
3465 4331 4332 28
3466 4331 4333 28
3467 4331 4334 28
3468 4331 4335 28
3469 4336 4337 28
3470 4336 4338 28
3471 4336 4339 28
3472 4336 4340 28
3473 4341 4342 28
3474 4341 4343 28
3475 4341 4344 28
3476 4341 4345 28
3477 4346 4347 28
3478 4346 4348 28
3479 4346 4349 28
3480 4346 4350 28
3481 4351 4352 28
3482 4351 4353 28
3483 4351 4354 28
3484 4351 4355 28
3485 4356 4357 28
3486 4356 4358 28
3487 4356 4359 28
3488 4356 4360 28
3489 4361 4362 28
3490 4361 4363 28
3491 4361 4364 28
3492 4361 4365 28
3493 4366 4367 28
3494 4366 4368 28
3495 4366 4369 28
3496 4366 4370 28
3497 4371 4372 28
3498 4371 4373 28
3499 4371 4374 28
3500 4371 4375 28
3501 4376 4377 28
3502 4376 4378 28
3503 4376 4379 28
3504 4376 4380 28
3505 4381 4382 28
3506 4381 4383 28
3507 4381 4384 28
3508 4381 4385 28
3509 4386 4387 28
3510 4386 4388 28
3511 4386 4389 28
3512 4386 4390 28
3513 4391 4392 28
3514 4391 4393 28
3515 4391 4394 28
3516 4391 4395 28
3517 4396 4397 28
3518 4396 4398 28
3519 4396 4399 28
3520 4396 4400 28
3521 4401 4402 28
3522 4401 4403 28
3523 4401 4404 28
3524 4401 4405 28
3525 4406 4407 28
3526 4406 4408 28
3527 4406 4409 28
3528 4406 4410 28
3529 4411 4412 28
3530 4411 4413 28
3531 4411 4414 28
3532 4411 4415 28
3533 4416 4417 28
3534 4416 4418 28
3535 4416 4419 28
3536 4416 4420 28
3537 4421 4422 28
3538 4421 4423 28
3539 4421 4424 28
3540 4421 4425 28
3541 4426 4427 28
3542 4426 4428 28
3543 4426 4429 28
3544 4426 4430 28
3545 4431 4432 28
3546 4431 4433 28
3547 4431 4434 28
3548 4431 4435 28
3549 4436 4437 28
3550 4436 4438 28
3551 4436 4439 28
3552 4436 4440 28
3553 4441 4442 28
3554 4441 4443 28
3555 4441 4444 28
3556 4441 4445 28
3557 4446 4447 28
3558 4446 4448 28
3559 4446 4449 28
3560 4446 4450 28
3561 4451 4452 28
3562 4451 4453 28
3563 4451 4454 28
3564 4451 4455 28
3565 4456 4457 28
3566 4456 4458 28
3567 4456 4459 28
3568 4456 4460 28
3569 4461 4462 28
3570 4461 4463 28
3571 4461 4464 28
3572 4461 4465 28
3573 4466 4467 28
3574 4466 4468 28
3575 4466 4469 28
3576 4466 4470 28
3577 4471 4472 28
3578 4471 4473 28
3579 4471 4474 28
3580 4471 4475 28
3581 4476 4477 28
3582 4476 4478 28
3583 4476 4479 28
3584 4476 4480 28
3585 4481 4482 28
3586 4481 4483 28
3587 4481 4484 28
3588 4481 4485 28
3589 4486 4487 28
3590 4486 4488 28
3591 4486 4489 28
3592 4486 4490 28
3593 4491 4492 28
3594 4491 4493 28
3595 4491 4494 28
3596 4491 4495 28
3597 4496 4497 28
3598 4496 4498 28
3599 4496 4499 28
3600 4496 4500 28
3601 4501 4502 28
3602 4501 4503 28
3603 4501 4504 28
3604 4501 4505 28
3605 4506 4507 28
3606 4506 4508 28
3607 4506 4509 28
3608 4506 4510 28
3609 4511 4512 28
3610 4511 4513 28
3611 4511 4514 28
3612 4511 4515 28
3613 4516 4517 28
3614 4516 4518 28
3615 4516 4519 28
3616 4516 4520 28
3617 4521 4522 28
3618 4521 4523 28
3619 4521 4524 28
3620 4521 4525 28
3621 4526 4527 28
3622 4526 4528 28
3623 4526 4529 28
3624 4526 4530 28
3625 4531 4532 28
3626 4531 4533 28
3627 4531 4534 28
3628 4531 4535 28
3629 4536 4537 28
3630 4536 4538 28
3631 4536 4539 28
3632 4536 4540 28
3633 4541 4542 28
3634 4541 4543 28
3635 4541 4544 28
3636 4541 4545 28
3637 4546 4547 28
3638 4546 4548 28
3639 4546 4549 28
3640 4546 4550 28
3641 4551 4552 28
3642 4551 4553 28
3643 4551 4554 28
3644 4551 4555 28
3645 4556 4557 28
3646 4556 4558 28
3647 4556 4559 28
3648 4556 4560 28
3649 4561 4562 28
3650 4561 4563 28
3651 4561 4564 28
3652 4561 4565 28
3653 4566 4567 28
3654 4566 4568 28
3655 4566 4569 28
3656 4566 4570 28
3657 4571 4572 28
3658 4571 4573 28
3659 4571 4574 28
3660 4571 4575 28
3661 4576 4577 28
3662 4576 4578 28
3663 4576 4579 28
3664 4576 4580 28
3665 4581 4582 28
3666 4581 4583 28
3667 4581 4584 28
3668 4581 4585 28
3669 4586 4587 28
3670 4586 4588 28
3671 4586 4589 28
3672 4586 4590 28
3673 4591 4592 28
3674 4591 4593 28
3675 4591 4594 28
3676 4591 4595 28
3677 4596 4597 28
3678 4596 4598 28
3679 4596 4599 28
3680 4596 4600 28
3681 4601 4602 28
3682 4601 4603 28
3683 4601 4604 28
3684 4601 4605 28
3685 4606 4607 28
3686 4606 4608 28
3687 4606 4609 28
3688 4606 4610 28
3689 4611 4612 28
3690 4611 4613 28
3691 4611 4614 28
3692 4611 4615 28
3693 4616 4617 28
3694 4616 4618 28
3695 4616 4619 28
3696 4616 4620 28
3697 4621 4622 28
3698 4621 4623 28
3699 4621 4624 28
3700 4621 4625 28
3701 4626 4627 28
3702 4626 4628 28
3703 4626 4629 28
3704 4626 4630 28
3705 4631 4632 28
3706 4631 4633 28
3707 4631 4634 28
3708 4631 4635 28
3709 4636 4637 28
3710 4636 4638 28
3711 4636 4639 28
3712 4636 4640 28
3713 4641 4642 28
3714 4641 4643 28
3715 4641 4644 28
3716 4641 4645 28
3717 4646 4647 28
3718 4646 4648 28
3719 4646 4649 28
3720 4646 4650 28
3721 4651 4652 28
3722 4651 4653 28
3723 4651 4654 28
3724 4651 4655 28
3725 4656 4657 28
3726 4656 4658 28
3727 4656 4659 28
3728 4656 4660 28
3729 4661 4662 28
3730 4661 4663 28
3731 4661 4664 28
3732 4661 4665 28
3733 4666 4667 28
3734 4666 4668 28
3735 4666 4669 28
3736 4666 4670 28
3737 4671 4672 28
3738 4671 4673 28
3739 4671 4674 28
3740 4671 4675 28
3741 4676 4677 28
3742 4676 4678 28
3743 4676 4679 28
3744 4676 4680 28
3745 4681 4682 28
3746 4681 4683 28
3747 4681 4684 28
3748 4681 4685 28
3749 4686 4687 28
3750 4686 4688 28
3751 4686 4689 28
3752 4686 4690 28
3753 4691 4692 28
3754 4691 4693 28
3755 4691 4694 28
3756 4691 4695 28
3757 4696 4697 28
3758 4696 4698 28
3759 4696 4699 28
3760 4696 4700 28
3761 4701 4702 28
3762 4701 4703 28
3763 4701 4704 28
3764 4701 4705 28
3765 4706 4707 28
3766 4706 4708 28
3767 4706 4709 28
3768 4706 4710 28
3769 4711 4712 28
3770 4711 4713 28
3771 4711 4714 28
3772 4711 4715 28
3773 4716 4717 28
3774 4716 4718 28
3775 4716 4719 28
3776 4716 4720 28
3777 4721 4722 28
3778 4721 4723 28
3779 4721 4724 28
3780 4721 4725 28
3781 4726 4727 28
3782 4726 4728 28
3783 4726 4729 28
3784 4726 4730 28
3785 4731 4732 28
3786 4731 4733 28
3787 4731 4734 28
3788 4731 4735 28
3789 4736 4737 28
3790 4736 4738 28
3791 4736 4739 28
3792 4736 4740 28
3793 4741 4742 28
3794 4741 4743 28
3795 4741 4744 28
3796 4741 4745 28
3797 4746 4747 28
3798 4746 4748 28
3799 4746 4749 28
3800 4746 4750 28
3801 4751 4752 28
3802 4751 4753 28
3803 4751 4754 28
3804 4751 4755 28
3805 4756 4757 28
3806 4756 4758 28
3807 4756 4759 28
3808 4756 4760 28
3809 4761 4762 28
3810 4761 4763 28
3811 4761 4764 28
3812 4761 4765 28
3813 4766 4767 28
3814 4766 4768 28
3815 4766 4769 28
3816 4766 4770 28
3817 4771 4772 28
3818 4771 4773 28
3819 4771 4774 28
3820 4771 4775 28
3821 4776 4777 28
3822 4776 4778 28
3823 4776 4779 28
3824 4776 4780 28
3825 4781 4782 28
3826 4781 4783 28
3827 4781 4784 28
3828 4781 4785 28
3829 4786 4787 28
3830 4786 4788 28
3831 4786 4789 28
3832 4786 4790 28
3833 4791 4792 28
3834 4791 4793 28
3835 4791 4794 28
3836 4791 4795 28
3837 4796 4797 28
3838 4796 4798 28
3839 4796 4799 28
3840 4796 4800 28
3841 4801 4802 28
3842 4801 4803 28
3843 4801 4804 28
3844 4801 4805 28
3845 4806 4807 28
3846 4806 4808 28
3847 4806 4809 28
3848 4806 4810 28
3849 4811 4812 28
3850 4811 4813 28
3851 4811 4814 28
3852 4811 4815 28
3853 4816 4817 28
3854 4816 4818 28
3855 4816 4819 28
3856 4816 4820 28
3857 4821 4822 28
3858 4821 4823 28
3859 4821 4824 28
3860 4821 4825 28
3861 4826 4827 28
3862 4826 4828 28
3863 4826 4829 28
3864 4826 4830 28
3865 4831 4832 28
3866 4831 4833 28
3867 4831 4834 28
3868 4831 4835 28
3869 4836 4837 28
3870 4836 4838 28
3871 4836 4839 28
3872 4836 4840 28
3873 4841 4842 28
3874 4841 4843 28
3875 4841 4844 28
3876 4841 4845 28
3877 4846 4847 28
3878 4846 4848 28
3879 4846 4849 28
3880 4846 4850 28
3881 4851 4852 28
3882 4851 4853 28
3883 4851 4854 28
3884 4851 4855 28
3885 4856 4857 28
3886 4856 4858 28
3887 4856 4859 28
3888 4856 4860 28
3889 4861 4862 28
3890 4861 4863 28
3891 4861 4864 28
3892 4861 4865 28
3893 4866 4867 28
3894 4866 4868 28
3895 4866 4869 28
3896 4866 4870 28
3897 4871 4872 28
3898 4871 4873 28
3899 4871 4874 28
3900 4871 4875 28
3901 4876 4877 28
3902 4876 4878 28
3903 4876 4879 28
3904 4876 4880 28
3905 4881 4882 28
3906 4881 4883 28
3907 4881 4884 28
3908 4881 4885 28
3909 4886 4887 28
3910 4886 4888 28
3911 4886 4889 28
3912 4886 4890 28
3913 4891 4892 28
3914 4891 4893 28
3915 4891 4894 28
3916 4891 4895 28
3917 4896 4897 28
3918 4896 4898 28
3919 4896 4899 28
3920 4896 4900 28
3921 4901 4902 28
3922 4901 4903 28
3923 4901 4904 28
3924 4901 4905 28
3925 4906 4907 28
3926 4906 4908 28
3927 4906 4909 28
3928 4906 4910 28
3929 4911 4912 28
3930 4911 4913 28
3931 4911 4914 28
3932 4911 4915 28
3933 4916 4917 28
3934 4916 4918 28
3935 4916 4919 28
3936 4916 4920 28
3937 4921 4922 28
3938 4921 4923 28
3939 4921 4924 28
3940 4921 4925 28
3941 4926 4927 28
3942 4926 4928 28
3943 4926 4929 28
3944 4926 4930 28
3945 4931 4932 28
3946 4931 4933 28
3947 4931 4934 28
3948 4931 4935 28
3949 4936 4937 28
3950 4936 4938 28
3951 4936 4939 28
3952 4936 4940 28
3953 4941 4942 28
3954 4941 4943 28
3955 4941 4944 28
3956 4941 4945 28
3957 4946 4947 28
3958 4946 4948 28
3959 4946 4949 28
3960 4946 4950 28
3961 4951 4952 28
3962 4951 4953 28
3963 4951 4954 28
3964 4951 4955 28
3965 4956 4957 28
3966 4956 4958 28
3967 4956 4959 28
3968 4956 4960 28
3969 4961 4962 28
3970 4961 4963 28
3971 4961 4964 28
3972 4961 4965 28
3973 4966 4967 28
3974 4966 4968 28
3975 4966 4969 28
3976 4966 4970 28
3977 4971 4972 28
3978 4971 4973 28
3979 4971 4974 28
3980 4971 4975 28
3981 4976 4977 28
3982 4976 4978 28
3983 4976 4979 28
3984 4976 4980 28
3985 4981 4982 28
3986 4981 4983 28
3987 4981 4984 28
3988 4981 4985 28
3989 4986 4987 28
3990 4986 4988 28
3991 4986 4989 28
3992 4986 4990 28
3993 4991 4992 28
3994 4991 4993 28
3995 4991 4994 28
3996 4991 4995 28
3997 4996 4997 28
3998 4996 4998 28
3999 4996 4999 28
4000 4996 5000 28
4001 5001 5002 28
4002 5001 5003 28
4003 5001 5004 28
4004 5001 5005 28
4005 5006 5007 28
4006 5006 5008 28
4007 5006 5009 28
4008 5006 5010 28
4009 5011 5012 28
4010 5011 5013 28
4011 5011 5014 28
4012 5011 5015 28
4013 5016 5017 28
4014 5016 5018 28
4015 5016 5019 28
4016 5016 5020 28
4017 5021 5022 28
4018 5021 5023 28
4019 5021 5024 28
4020 5021 5025 28
4021 5026 5027 28
4022 5026 5028 28
4023 5026 5029 28
4024 5026 5030 28
4025 5031 5032 28
4026 5031 5033 28
4027 5031 5034 28
4028 5031 5035 28
4029 5036 5037 28
4030 5036 5038 28
4031 5036 5039 28
4032 5036 5040 28
4033 5041 5042 28
4034 5041 5043 28
4035 5041 5044 28
4036 5041 5045 28
4037 5046 5047 28
4038 5046 5048 28
4039 5046 5049 28
4040 5046 5050 28
4041 5051 5052 28
4042 5051 5053 28
4043 5051 5054 28
4044 5051 5055 28
4045 5056 5057 28
4046 5056 5058 28
4047 5056 5059 28
4048 5056 5060 28
4049 5061 5062 28
4050 5061 5063 28
4051 5061 5064 28
4052 5061 5065 28
4053 5066 5067 28
4054 5066 5068 28
4055 5066 5069 28
4056 5066 5070 28
4057 5071 5072 28
4058 5071 5073 28
4059 5071 5074 28
4060 5071 5075 28
4061 5076 5077 28
4062 5076 5078 28
4063 5076 5079 28
4064 5076 5080 28
4065 5081 5082 28
4066 5081 5083 28
4067 5081 5084 28
4068 5081 5085 28
4069 5086 5087 28
4070 5086 5088 28
4071 5086 5089 28
4072 5086 5090 28
4073 5091 5092 28
4074 5091 5093 28
4075 5091 5094 28
4076 5091 5095 28
4077 5096 5097 28
4078 5096 5098 28
4079 5096 5099 28
4080 5096 5100 28
4081 5101 5102 28
4082 5101 5103 28
4083 5101 5104 28
4084 5101 5105 28
4085 5106 5107 28
4086 5106 5108 28
4087 5106 5109 28
4088 5106 5110 28
4089 5111 5112 28
4090 5111 5113 28
4091 5111 5114 28
4092 5111 5115 28
4093 5116 5117 28
4094 5116 5118 28
4095 5116 5119 28
4096 5116 5120 28
4097 5121 5122 28
4098 5121 5123 28
4099 5121 5124 28
4100 5121 5125 28
4101 5126 5127 28
4102 5126 5128 28
4103 5126 5129 28
4104 5126 5130 28
4105 5131 5132 28
4106 5131 5133 28
4107 5131 5134 28
4108 5131 5135 28
4109 5136 5137 28
4110 5136 5138 28
4111 5136 5139 28
4112 5136 5140 28
4113 5141 5142 28
4114 5141 5143 28
4115 5141 5144 28
4116 5141 5145 28
4117 5146 5147 28
4118 5146 5148 28
4119 5146 5149 28
4120 5146 5150 28
4121 5151 5152 28
4122 5151 5153 28
4123 5151 5154 28
4124 5151 5155 28
4125 5156 5157 28
4126 5156 5158 28
4127 5156 5159 28
4128 5156 5160 28
4129 5161 5162 28
4130 5161 5163 28
4131 5161 5164 28
4132 5161 5165 28
4133 5166 5167 28
4134 5166 5168 28
4135 5166 5169 28
4136 5166 5170 28
4137 5171 5172 28
4138 5171 5173 28
4139 5171 5174 28
4140 5171 5175 28
4141 5176 5177 28
4142 5176 5178 28
4143 5176 5179 28
4144 5176 5180 28
4145 5181 5182 28
4146 5181 5183 28
4147 5181 5184 28
4148 5181 5185 28
4149 5186 5187 28
4150 5186 5188 28
4151 5186 5189 28
4152 5186 5190 28
4153 5191 5192 28
4154 5191 5193 28
4155 5191 5194 28
4156 5191 5195 28
4157 5196 5197 28
4158 5196 5198 28
4159 5196 5199 28
4160 5196 5200 28
4161 5201 5202 28
4162 5201 5203 28
4163 5201 5204 28
4164 5201 5205 28
4165 5206 5207 28
4166 5206 5208 28
4167 5206 5209 28
4168 5206 5210 28
4169 5211 5212 28
4170 5211 5213 28
4171 5211 5214 28
4172 5211 5215 28
4173 5216 5217 28
4174 5216 5218 28
4175 5216 5219 28
4176 5216 5220 28
4177 5221 5222 28
4178 5221 5223 28
4179 5221 5224 28
4180 5221 5225 28
4181 5226 5227 28
4182 5226 5228 28
4183 5226 5229 28
4184 5226 5230 28
4185 5231 5232 28
4186 5231 5233 28
4187 5231 5234 28
4188 5231 5235 28
4189 5236 5237 28
4190 5236 5238 28
4191 5236 5239 28
4192 5236 5240 28
4193 5241 5242 28
4194 5241 5243 28
4195 5241 5244 28
4196 5241 5245 28
4197 5246 5247 28
4198 5246 5248 28
4199 5246 5249 28
4200 5246 5250 28
4201 5251 5252 28
4202 5251 5253 28
4203 5251 5254 28
4204 5251 5255 28
4205 5256 5257 28
4206 5256 5258 28
4207 5256 5259 28
4208 5256 5260 28
4209 5261 5262 28
4210 5261 5263 28
4211 5261 5264 28
4212 5261 5265 28
4213 5266 5267 28
4214 5266 5268 28
4215 5266 5269 28
4216 5266 5270 28
4217 5271 5272 28
4218 5271 5273 28
4219 5271 5274 28
4220 5271 5275 28
4221 5276 5277 28
4222 5276 5278 28
4223 5276 5279 28
4224 5276 5280 28
4225 5281 5282 28
4226 5281 5283 28
4227 5281 5284 28
4228 5281 5285 28
4229 5286 5287 28
4230 5286 5288 28
4231 5286 5289 28
4232 5286 5290 28
4233 5291 5292 28
4234 5291 5293 28
4235 5291 5294 28
4236 5291 5295 28
4237 5296 5297 28
4238 5296 5298 28
4239 5296 5299 28
4240 5296 5300 28
4241 5301 5302 28
4242 5301 5303 28
4243 5301 5304 28
4244 5301 5305 28
4245 5306 5307 28
4246 5306 5308 28
4247 5306 5309 28
4248 5306 5310 28
4249 5311 5312 28
4250 5311 5313 28
4251 5311 5314 28
4252 5311 5315 28
4253 5316 5317 28
4254 5316 5318 28
4255 5316 5319 28
4256 5316 5320 28
4257 5321 5322 28
4258 5321 5323 28
4259 5321 5324 28
4260 5321 5325 28
4261 5326 5327 28
4262 5326 5328 28
4263 5326 5329 28
4264 5326 5330 28
4265 5331 5332 28
4266 5331 5333 28
4267 5331 5334 28
4268 5331 5335 28
4269 5336 5337 28
4270 5336 5338 28
4271 5336 5339 28
4272 5336 5340 28
4273 5341 5342 28
4274 5341 5343 28
4275 5341 5344 28
4276 5341 5345 28
4277 5346 5347 28
4278 5346 5348 28
4279 5346 5349 28
4280 5346 5350 28
4281 5351 5352 28
4282 5351 5353 28
4283 5351 5354 28
4284 5351 5355 28
4285 5356 5357 28
4286 5356 5358 28
4287 5356 5359 28
4288 5356 5360 28
4289 5361 5362 28
4290 5361 5363 28
4291 5361 5364 28
4292 5361 5365 28
4293 5366 5367 28
4294 5366 5368 28
4295 5366 5369 28
4296 5366 5370 28
4297 5371 5372 28
4298 5371 5373 28
4299 5371 5374 28
4300 5371 5375 28
4301 5376 5377 28
4302 5376 5378 28
4303 5376 5379 28
4304 5376 5380 28
4305 5381 5382 28
4306 5381 5383 28
4307 5381 5384 28
4308 5381 5385 28
4309 5386 5387 28
4310 5386 5388 28
4311 5386 5389 28
4312 5386 5390 28
4313 5391 5392 28
4314 5391 5393 28
4315 5391 5394 28
4316 5391 5395 28
4317 5396 5397 28
4318 5396 5398 28
4319 5396 5399 28
4320 5396 5400 28
4321 5401 5402 28
4322 5401 5403 28
4323 5401 5404 28
4324 5401 5405 28
4325 5406 5407 28
4326 5406 5408 28
4327 5406 5409 28
4328 5406 5410 28
4329 5411 5412 28
4330 5411 5413 28
4331 5411 5414 28
4332 5411 5415 28
4333 5416 5417 28
4334 5416 5418 28
4335 5416 5419 28
4336 5416 5420 28
4337 5421 5422 28
4338 5421 5423 28
4339 5421 5424 28
4340 5421 5425 28
4341 5426 5427 28
4342 5426 5428 28
4343 5426 5429 28
4344 5426 5430 28
4345 5431 5432 28
4346 5431 5433 28
4347 5431 5434 28
4348 5431 5435 28
4349 5436 5437 28
4350 5436 5438 28
4351 5436 5439 28
4352 5436 5440 28
4353 5441 5442 28
4354 5441 5443 28
4355 5441 5444 28
4356 5441 5445 28
4357 5446 5447 28
4358 5446 5448 28
4359 5446 5449 28
4360 5446 5450 28
4361 5451 5452 28
4362 5451 5453 28
4363 5451 5454 28
4364 5451 5455 28
4365 5456 5457 28
4366 5456 5458 28
4367 5456 5459 28
4368 5456 5460 28
4369 5461 5462 28
4370 5461 5463 28
4371 5461 5464 28
4372 5461 5465 28
4373 5466 5467 28
4374 5466 5468 28
4375 5466 5469 28
4376 5466 5470 28
4377 5471 5472 28
4378 5471 5473 28
4379 5471 5474 28
4380 5471 5475 28
4381 5476 5477 28
4382 5476 5478 28
4383 5476 5479 28
4384 5476 5480 28
4385 5481 5482 28
4386 5481 5483 28
4387 5481 5484 28
4388 5481 5485 28
4389 5486 5487 28
4390 5486 5488 28
4391 5486 5489 28
4392 5486 5490 28
4393 5491 5492 28
4394 5491 5493 28
4395 5491 5494 28
4396 5491 5495 28
4397 5496 5497 28
4398 5496 5498 28
4399 5496 5499 28
4400 5496 5500 28
4401 5501 5502 28
4402 5501 5503 28
4403 5501 5504 28
4404 5501 5505 28
4405 5506 5507 28
4406 5506 5508 28
4407 5506 5509 28
4408 5506 5510 28
4409 5511 5512 28
4410 5511 5513 28
4411 5511 5514 28
4412 5511 5515 28
4413 5516 5517 28
4414 5516 5518 28
4415 5516 5519 28
4416 5516 5520 28
4417 5521 5522 28
4418 5521 5523 28
4419 5521 5524 28
4420 5521 5525 28
4421 5526 5527 28
4422 5526 5528 28
4423 5526 5529 28
4424 5526 5530 28
4425 5531 5532 28
4426 5531 5533 28
4427 5531 5534 28
4428 5531 5535 28
4429 5536 5537 28
4430 5536 5538 28
4431 5536 5539 28
4432 5536 5540 28
4433 5541 5542 28
4434 5541 5543 28
4435 5541 5544 28
4436 5541 5545 28
4437 5546 5547 28
4438 5546 5548 28
4439 5546 5549 28
4440 5546 5550 28
4441 5551 5552 28
4442 5551 5553 28
4443 5551 5554 28
4444 5551 5555 28
4445 5556 5557 28
4446 5556 5558 28
4447 5556 5559 28
4448 5556 5560 28
4449 5561 5562 28
4450 5561 5563 28
4451 5561 5564 28
4452 5561 5565 28
4453 5566 5567 28
4454 5566 5568 28
4455 5566 5569 28
4456 5566 5570 28
4457 5571 5572 28
4458 5571 5573 28
4459 5571 5574 28
4460 5571 5575 28
4461 5576 5577 28
4462 5576 5578 28
4463 5576 5579 28
4464 5576 5580 28
4465 5581 5582 28
4466 5581 5583 28
4467 5581 5584 28
4468 5581 5585 28
4469 5586 5587 28
4470 5586 5588 28
4471 5586 5589 28
4472 5586 5590 28
4473 5591 5592 28
4474 5591 5593 28
4475 5591 5594 28
4476 5591 5595 28
4477 5596 5597 28
4478 5596 5598 28
4479 5596 5599 28
4480 5596 5600 28
4481 5601 5602 28
4482 5601 5603 28
4483 5601 5604 28
4484 5601 5605 28
4485 5606 5607 28
4486 5606 5608 28
4487 5606 5609 28
4488 5606 5610 28
4489 5611 5612 28
4490 5611 5613 28
4491 5611 5614 28
4492 5611 5615 28
4493 5616 5617 28
4494 5616 5618 28
4495 5616 5619 28
4496 5616 5620 28
4497 5621 5622 28
4498 5621 5623 28
4499 5621 5624 28
4500 5621 5625 28
4501 5626 5627 28
4502 5626 5628 28
4503 5626 5629 28
4504 5626 5630 28
4505 5631 5632 28
4506 5631 5633 28
4507 5631 5634 28
4508 5631 5635 28
4509 5636 5637 28
4510 5636 5638 28
4511 5636 5639 28
4512 5636 5640 28
4513 5641 5642 28
4514 5641 5643 28
4515 5641 5644 28
4516 5641 5645 28
4517 5646 5647 28
4518 5646 5648 28
4519 5646 5649 28
4520 5646 5650 28
4521 5651 5652 28
4522 5651 5653 28
4523 5651 5654 28
4524 5651 5655 28
4525 5656 5657 28
4526 5656 5658 28
4527 5656 5659 28
4528 5656 5660 28
4529 5661 5662 28
4530 5661 5663 28
4531 5661 5664 28
4532 5661 5665 28
4533 5666 5667 28
4534 5666 5668 28
4535 5666 5669 28
4536 5666 5670 28
4537 5671 5672 28
4538 5671 5673 28
4539 5671 5674 28
4540 5671 5675 28
4541 5676 5677 28
4542 5676 5678 28
4543 5676 5679 28
4544 5676 5680 28
4545 5681 5682 28
4546 5681 5683 28
4547 5681 5684 28
4548 5681 5685 28
4549 5686 5687 28
4550 5686 5688 28
4551 5686 5689 28
4552 5686 5690 28
4553 5691 5692 28
4554 5691 5693 28
4555 5691 5694 28
4556 5691 5695 28
4557 5696 5697 28
4558 5696 5698 28
4559 5696 5699 28
4560 5696 5700 28
4561 5701 5702 28
4562 5701 5703 28
4563 5701 5704 28
4564 5701 5705 28
4565 5706 5707 28
4566 5706 5708 28
4567 5706 5709 28
4568 5706 5710 28
4569 5711 5712 28
4570 5711 5713 28
4571 5711 5714 28
4572 5711 5715 28
4573 5716 5717 28
4574 5716 5718 28
4575 5716 5719 28
4576 5716 5720 28
4577 5721 5722 28
4578 5721 5723 28
4579 5721 5724 28
4580 5721 5725 28
4581 5726 5727 28
4582 5726 5728 28
4583 5726 5729 28
4584 5726 5730 28
4585 5731 5732 28
4586 5731 5733 28
4587 5731 5734 28
4588 5731 5735 28
4589 5736 5737 28
4590 5736 5738 28
4591 5736 5739 28
4592 5736 5740 28
4593 5741 5742 28
4594 5741 5743 28
4595 5741 5744 28
4596 5741 5745 28
4597 5746 5747 28
4598 5746 5748 28
4599 5746 5749 28
4600 5746 5750 28
4601 5751 5752 28
4602 5751 5753 28
4603 5751 5754 28
4604 5751 5755 28
4605 5756 5757 28
4606 5756 5758 28
4607 5756 5759 28
4608 5756 5760 28
4609 5761 5762 28
4610 5761 5763 28
4611 5761 5764 28
4612 5761 5765 28
4613 5766 5767 28
4614 5766 5768 28
4615 5766 5769 28
4616 5766 5770 28
4617 5771 5772 28
4618 5771 5773 28
4619 5771 5774 28
4620 5771 5775 28
4621 5776 5777 28
4622 5776 5778 28
4623 5776 5779 28
4624 5776 5780 28
4625 5781 5782 28
4626 5781 5783 28
4627 5781 5784 28
4628 5781 5785 28
4629 5786 5787 28
4630 5786 5788 28
4631 5786 5789 28
4632 5786 5790 28
4633 5791 5792 28
4634 5791 5793 28
4635 5791 5794 28
4636 5791 5795 28
4637 5796 5797 28
4638 5796 5798 28
4639 5796 5799 28
4640 5796 5800 28
4641 5801 5802 28
4642 5801 5803 28
4643 5801 5804 28
4644 5801 5805 28
4645 5806 5807 28
4646 5806 5808 28
4647 5806 5809 28
4648 5806 5810 28
4649 5811 5812 28
4650 5811 5813 28
4651 5811 5814 28
4652 5811 5815 28
4653 5816 5817 28
4654 5816 5818 28
4655 5816 5819 28
4656 5816 5820 28
4657 5821 5822 28
4658 5821 5823 28
4659 5821 5824 28
4660 5821 5825 28
4661 5826 5827 28
4662 5826 5828 28
4663 5826 5829 28
4664 5826 5830 28
4665 5831 5832 28
4666 5831 5833 28
4667 5831 5834 28
4668 5831 5835 28
4669 5836 5837 28
4670 5836 5838 28
4671 5836 5839 28
4672 5836 5840 28
4673 5841 5842 28
4674 5841 5843 28
4675 5841 5844 28
4676 5841 5845 28
4677 5846 5847 28
4678 5846 5848 28
4679 5846 5849 28
4680 5846 5850 28
4681 5851 5852 28
4682 5851 5853 28
4683 5851 5854 28
4684 5851 5855 28
4685 5856 5857 28
4686 5856 5858 28
4687 5856 5859 28
4688 5856 5860 28
4689 5861 5862 28
4690 5861 5863 28
4691 5861 5864 28
4692 5861 5865 28
4693 5866 5867 28
4694 5866 5868 28
4695 5866 5869 28
4696 5866 5870 28
4697 5871 5872 28
4698 5871 5873 28
4699 5871 5874 28
4700 5871 5875 28
4701 5876 5877 28
4702 5876 5878 28
4703 5876 5879 28
4704 5876 5880 28
4705 5881 5882 28
4706 5881 5883 28
4707 5881 5884 28
4708 5881 5885 28
4709 5886 5887 28
4710 5886 5888 28
4711 5886 5889 28
4712 5886 5890 28
4713 5891 5892 28
4714 5891 5893 28
4715 5891 5894 28
4716 5891 5895 28
4717 5896 5897 28
4718 5896 5898 28
4719 5896 5899 28
4720 5896 5900 28
4721 5901 5902 28
4722 5901 5903 28
4723 5901 5904 28
4724 5901 5905 28
4725 5906 5907 28
4726 5906 5908 28
4727 5906 5909 28
4728 5906 5910 28
4729 5911 5912 28
4730 5911 5913 28
4731 5911 5914 28
4732 5911 5915 28
4733 5916 5917 28
4734 5916 5918 28
4735 5916 5919 28
4736 5916 5920 28
4737 5921 5922 28
4738 5921 5923 28
4739 5921 5924 28
4740 5921 5925 28
4741 5926 5927 28
4742 5926 5928 28
4743 5926 5929 28
4744 5926 5930 28
4745 5931 5932 28
4746 5931 5933 28
4747 5931 5934 28
4748 5931 5935 28
4749 5936 5937 28
4750 5936 5938 28
4751 5936 5939 28
4752 5936 5940 28
4753 5941 5942 28
4754 5941 5943 28
4755 5941 5944 28
4756 5941 5945 28
4757 5946 5947 28
4758 5946 5948 28
4759 5946 5949 28
4760 5946 5950 28
4761 5951 5952 28
4762 5951 5953 28
4763 5951 5954 28
4764 5951 5955 28
4765 5956 5957 28
4766 5956 5958 28
4767 5956 5959 28
4768 5956 5960 28
4769 5961 5962 28
4770 5961 5963 28
4771 5961 5964 28
4772 5961 5965 28
4773 5966 5967 28
4774 5966 5968 28
4775 5966 5969 28
4776 5966 5970 28
4777 5971 5972 28
4778 5971 5973 28
4779 5971 5974 28
4780 5971 5975 28
4781 5976 5977 28
4782 5976 5978 28
4783 5976 5979 28
4784 5976 5980 28
4785 5981 5982 28
4786 5981 5983 28
4787 5981 5984 28
4788 5981 5985 28
4789 5986 5987 28
4790 5986 5988 28
4791 5986 5989 28
4792 5986 5990 28
4793 5991 5992 28
4794 5991 5993 28
4795 5991 5994 28
4796 5991 5995 28
4797 5996 5997 28
4798 5996 5998 28
4799 5996 5999 28
4800 5996 6000 28
4801 6001 6002 28
4802 6001 6003 28
4803 6001 6004 28
4804 6001 6005 28
4805 6006 6007 28
4806 6006 6008 28
4807 6006 6009 28
4808 6006 6010 28
4809 6011 6012 28
4810 6011 6013 28
4811 6011 6014 28
4812 6011 6015 28
4813 6016 6017 28
4814 6016 6018 28
4815 6016 6019 28
4816 6016 6020 28
4817 6021 6022 28
4818 6021 6023 28
4819 6021 6024 28
4820 6021 6025 28
4821 6026 6027 28
4822 6026 6028 28
4823 6026 6029 28
4824 6026 6030 28
4825 6031 6032 28
4826 6031 6033 28
4827 6031 6034 28
4828 6031 6035 28
4829 6036 6037 28
4830 6036 6038 28
4831 6036 6039 28
4832 6036 6040 28
4833 6041 6042 28
4834 6041 6043 28
4835 6041 6044 28
4836 6041 6045 28
4837 6046 6047 28
4838 6046 6048 28
4839 6046 6049 28
4840 6046 6050 28
4841 6051 6052 28
4842 6051 6053 28
4843 6051 6054 28
4844 6051 6055 28
4845 6056 6057 28
4846 6056 6058 28
4847 6056 6059 28
4848 6056 6060 28
4849 6061 6062 28
4850 6061 6063 28
4851 6061 6064 28
4852 6061 6065 28
4853 6066 6067 28
4854 6066 6068 28
4855 6066 6069 28
4856 6066 6070 28
4857 6071 6072 28
4858 6071 6073 28
4859 6071 6074 28
4860 6071 6075 28
4861 6076 6077 28
4862 6076 6078 28
4863 6076 6079 28
4864 6076 6080 28
4865 6081 6082 28
4866 6081 6083 28
4867 6081 6084 28
4868 6081 6085 28
4869 6086 6087 28
4870 6086 6088 28
4871 6086 6089 28
4872 6086 6090 28
4873 6091 6092 28
4874 6091 6093 28
4875 6091 6094 28
4876 6091 6095 28
4877 6096 6097 28
4878 6096 6098 28
4879 6096 6099 28
4880 6096 6100 28
4881 6101 6102 28
4882 6101 6103 28
4883 6101 6104 28
4884 6101 6105 28
4885 6106 6107 28
4886 6106 6108 28
4887 6106 6109 28
4888 6106 6110 28
4889 6111 6112 28
4890 6111 6113 28
4891 6111 6114 28
4892 6111 6115 28
4893 6116 6117 28
4894 6116 6118 28
4895 6116 6119 28
4896 6116 6120 28
4897 6121 6122 28
4898 6121 6123 28
4899 6121 6124 28
4900 6121 6125 28
4901 6126 6127 28
4902 6126 6128 28
4903 6126 6129 28
4904 6126 6130 28
4905 6131 6132 28
4906 6131 6133 28
4907 6131 6134 28
4908 6131 6135 28
4909 6136 6137 28
4910 6136 6138 28
4911 6136 6139 28
4912 6136 6140 28
4913 6141 6142 28
4914 6141 6143 28
4915 6141 6144 28
4916 6141 6145 28
4917 6146 6147 28
4918 6146 6148 28
4919 6146 6149 28
4920 6146 6150 28
4921 6151 6152 28
4922 6151 6153 28
4923 6151 6154 28
4924 6151 6155 28
4925 6156 6157 28
4926 6156 6158 28
4927 6156 6159 28
4928 6156 6160 28
4929 6161 6162 28
4930 6161 6163 28
4931 6161 6164 28
4932 6161 6165 28
4933 6166 6167 28
4934 6166 6168 28
4935 6166 6169 28
4936 6166 6170 28
4937 6171 6172 28
4938 6171 6173 28
4939 6171 6174 28
4940 6171 6175 28
4941 6176 6177 28
4942 6176 6178 28
4943 6176 6179 28
4944 6176 6180 28
4945 6181 6182 28
4946 6181 6183 28
4947 6181 6184 28
4948 6181 6185 28
4949 6186 6187 28
4950 6186 6188 28
4951 6186 6189 28
4952 6186 6190 28
4953 6191 6192 28
4954 6191 6193 28
4955 6191 6194 28
4956 6191 6195 28
4957 6196 6197 28
4958 6196 6198 28
4959 6196 6199 28
4960 6196 6200 28
4961 6201 6202 28
4962 6201 6203 28
4963 6201 6204 28
4964 6201 6205 28
4965 6206 6207 28
4966 6206 6208 28
4967 6206 6209 28
4968 6206 6210 28
4969 6211 6212 28
4970 6211 6213 28
4971 6211 6214 28
4972 6211 6215 28
4973 6216 6217 28
4974 6216 6218 28
4975 6216 6219 28
4976 6216 6220 28
4977 6221 6222 28
4978 6221 6223 28
4979 6221 6224 28
4980 6221 6225 28
4981 6226 6227 28
4982 6226 6228 28
4983 6226 6229 28
4984 6226 6230 28
4985 6231 6232 28
4986 6231 6233 28
4987 6231 6234 28
4988 6231 6235 28
4989 6236 6237 28
4990 6236 6238 28
4991 6236 6239 28
4992 6236 6240 28
4993 6241 6242 28
4994 6241 6243 28
4995 6241 6244 28
4996 6241 6245 28
4997 6246 6247 28
4998 6246 6248 28
4999 6246 6249 28
5000 6246 6250 28
5001 6251 6252 28
5002 6251 6253 28
5003 6251 6254 28
5004 6251 6255 28
5005 6256 6257 28
5006 6256 6258 28
5007 6256 6259 28
5008 6256 6260 28
5009 6261 6262 28
5010 6261 6263 28
5011 6261 6264 28
5012 6261 6265 28
5013 6266 6267 28
5014 6266 6268 28
5015 6266 6269 28
5016 6266 6270 28
5017 6271 6272 28
5018 6271 6273 28
5019 6271 6274 28
5020 6271 6275 28
5021 6276 6277 28
5022 6276 6278 28
5023 6276 6279 28
5024 6276 6280 28
5025 6281 6282 28
5026 6281 6283 28
5027 6281 6284 28
5028 6281 6285 28
5029 6286 6287 28
5030 6286 6288 28
5031 6286 6289 28
5032 6286 6290 28
5033 6291 6292 28
5034 6291 6293 28
5035 6291 6294 28
5036 6291 6295 28
5037 6296 6297 28
5038 6296 6298 28
5039 6296 6299 28
5040 6296 6300 28
5041 6301 6302 28
5042 6301 6303 28
5043 6301 6304 28
5044 6301 6305 28
5045 6306 6307 28
5046 6306 6308 28
5047 6306 6309 28
5048 6306 6310 28
5049 6311 6312 28
5050 6311 6313 28
5051 6311 6314 28
5052 6311 6315 28
5053 6316 6317 28
5054 6316 6318 28
5055 6316 6319 28
5056 6316 6320 28
5057 6321 6322 28
5058 6321 6323 28
5059 6321 6324 28
5060 6321 6325 28
5061 6326 6327 28
5062 6326 6328 28
5063 6326 6329 28
5064 6326 6330 28
5065 6331 6332 28
5066 6331 6333 28
5067 6331 6334 28
5068 6331 6335 28
5069 6336 6337 28
5070 6336 6338 28
5071 6336 6339 28
5072 6336 6340 28
5073 6341 6342 28
5074 6341 6343 28
5075 6341 6344 28
5076 6341 6345 28
5077 6346 6347 28
5078 6346 6348 28
5079 6346 6349 28
5080 6346 6350 28
5081 6351 6352 28
5082 6351 6353 28
5083 6351 6354 28
5084 6351 6355 28
5085 6356 6357 28
5086 6356 6358 28
5087 6356 6359 28
5088 6356 6360 28
5089 6361 6362 28
5090 6361 6363 28
5091 6361 6364 28
5092 6361 6365 28
5093 6366 6367 28
5094 6366 6368 28
5095 6366 6369 28
5096 6366 6370 28
5097 6371 6372 28
5098 6371 6373 28
5099 6371 6374 28
5100 6371 6375 28
5101 6376 6377 28
5102 6376 6378 28
5103 6376 6379 28
5104 6376 6380 28
5105 6381 6382 28
5106 6381 6383 28
5107 6381 6384 28
5108 6381 6385 28
5109 6386 6387 28
5110 6386 6388 28
5111 6386 6389 28
5112 6386 6390 28
5113 6391 6392 28
5114 6391 6393 28
5115 6391 6394 28
5116 6391 6395 28
5117 6396 6397 28
5118 6396 6398 28
5119 6396 6399 28
5120 6396 6400 28
5121 6401 6402 28
5122 6401 6403 28
5123 6401 6404 28
5124 6401 6405 28
5125 6406 6407 28
5126 6406 6408 28
5127 6406 6409 28
5128 6406 6410 28
5129 6411 6412 28
5130 6411 6413 28
5131 6411 6414 28
5132 6411 6415 28
5133 6416 6417 28
5134 6416 6418 28
5135 6416 6419 28
5136 6416 6420 28
5137 6421 6422 28
5138 6421 6423 28
5139 6421 6424 28
5140 6421 6425 28
5141 6426 6427 28
5142 6426 6428 28
5143 6426 6429 28
5144 6426 6430 28
5145 6431 6432 28
5146 6431 6433 28
5147 6431 6434 28
5148 6431 6435 28
5149 6436 6437 28
5150 6436 6438 28
5151 6436 6439 28
5152 6436 6440 28
5153 6441 6442 28
5154 6441 6443 28
5155 6441 6444 28
5156 6441 6445 28
5157 6446 6447 28
5158 6446 6448 28
5159 6446 6449 28
5160 6446 6450 28
5161 6451 6452 28
5162 6451 6453 28
5163 6451 6454 28
5164 6451 6455 28
5165 6456 6457 28
5166 6456 6458 28
5167 6456 6459 28
5168 6456 6460 28
5169 6461 6462 28
5170 6461 6463 28
5171 6461 6464 28
5172 6461 6465 28
5173 6466 6467 28
5174 6466 6468 28
5175 6466 6469 28
5176 6466 6470 28
5177 6471 6472 28
5178 6471 6473 28
5179 6471 6474 28
5180 6471 6475 28
5181 6476 6477 28
5182 6476 6478 28
5183 6476 6479 28
5184 6476 6480 28
5185 6481 6482 28
5186 6481 6483 28
5187 6481 6484 28
5188 6481 6485 28
5189 6486 6487 28
5190 6486 6488 28
5191 6486 6489 28
5192 6486 6490 28
5193 6491 6492 28
5194 6491 6493 28
5195 6491 6494 28
5196 6491 6495 28
5197 6496 6497 28
5198 6496 6498 28
5199 6496 6499 28
5200 6496 6500 28
5201 6501 6502 28
5202 6501 6503 28
5203 6501 6504 28
5204 6501 6505 28
5205 6506 6507 28
5206 6506 6508 28
5207 6506 6509 28
5208 6506 6510 28
5209 6511 6512 28
5210 6511 6513 28
5211 6511 6514 28
5212 6511 6515 28
5213 6516 6517 28
5214 6516 6518 28
5215 6516 6519 28
5216 6516 6520 28
5217 6521 6522 28
5218 6521 6523 28
5219 6521 6524 28
5220 6521 6525 28
5221 6526 6527 28
5222 6526 6528 28
5223 6526 6529 28
5224 6526 6530 28
5225 6531 6532 28
5226 6531 6533 28
5227 6531 6534 28
5228 6531 6535 28
5229 6536 6537 28
5230 6536 6538 28
5231 6536 6539 28
5232 6536 6540 28
5233 6541 6542 28
5234 6541 6543 28
5235 6541 6544 28
5236 6541 6545 28
5237 6546 6547 28
5238 6546 6548 28
5239 6546 6549 28
5240 6546 6550 28
5241 6551 6552 28
5242 6551 6553 28
5243 6551 6554 28
5244 6551 6555 28
5245 6556 6557 28
5246 6556 6558 28
5247 6556 6559 28
5248 6556 6560 28
5249 6561 6562 28
5250 6561 6563 28
5251 6561 6564 28
5252 6561 6565 28
5253 6566 6567 28
5254 6566 6568 28
5255 6566 6569 28
5256 6566 6570 28
5257 6571 6572 28
5258 6571 6573 28
5259 6571 6574 28
5260 6571 6575 28
5261 6576 6577 28
5262 6576 6578 28
5263 6576 6579 28
5264 6576 6580 28
5265 6581 6582 28
5266 6581 6583 28
5267 6581 6584 28
5268 6581 6585 28
5269 6586 6587 28
5270 6586 6588 28
5271 6586 6589 28
5272 6586 6590 28
5273 6591 6592 28
5274 6591 6593 28
5275 6591 6594 28
5276 6591 6595 28
5277 6596 6597 28
5278 6596 6598 28
5279 6596 6599 28
5280 6596 6600 28
5281 6601 6602 28
5282 6601 6603 28
5283 6601 6604 28
5284 6601 6605 28
5285 6606 6607 28
5286 6606 6608 28
5287 6606 6609 28
5288 6606 6610 28
5289 6611 6612 28
5290 6611 6613 28
5291 6611 6614 28
5292 6611 6615 28
5293 6616 6617 28
5294 6616 6618 28
5295 6616 6619 28
5296 6616 6620 28
5297 6621 6622 28
5298 6621 6623 28
5299 6621 6624 28
5300 6621 6625 28
5301 6626 6627 28
5302 6626 6628 28
5303 6626 6629 28
5304 6626 6630 28
5305 6631 6632 28
5306 6631 6633 28
5307 6631 6634 28
5308 6631 6635 28
5309 6636 6637 28
5310 6636 6638 28
5311 6636 6639 28
5312 6636 6640 28
5313 6641 6642 28
5314 6641 6643 28
5315 6641 6644 28
5316 6641 6645 28
5317 6646 6647 28
5318 6646 6648 28
5319 6646 6649 28
5320 6646 6650 28
5321 6651 6652 28
5322 6651 6653 28
5323 6651 6654 28
5324 6651 6655 28
5325 6656 6657 28
5326 6656 6658 28
5327 6656 6659 28
5328 6656 6660 28
5329 6661 6662 28
5330 6661 6663 28
5331 6661 6664 28
5332 6661 6665 28
5333 6666 6667 28
5334 6666 6668 28
5335 6666 6669 28
5336 6666 6670 28
5337 6671 6672 28
5338 6671 6673 28
5339 6671 6674 28
5340 6671 6675 28
5341 6676 6677 28
5342 6676 6678 28
5343 6676 6679 28
5344 6676 6680 28
5345 6681 6682 28
5346 6681 6683 28
5347 6681 6684 28
5348 6681 6685 28
5349 6686 6687 28
5350 6686 6688 28
5351 6686 6689 28
5352 6686 6690 28
5353 6691 6692 28
5354 6691 6693 28
5355 6691 6694 28
5356 6691 6695 28
5357 6696 6697 28
5358 6696 6698 28
5359 6696 6699 28
5360 6696 6700 28
5361 6701 6702 28
5362 6701 6703 28
5363 6701 6704 28
5364 6701 6705 28
5365 6706 6707 28
5366 6706 6708 28
5367 6706 6709 28
5368 6706 6710 28
5369 6711 6712 28
5370 6711 6713 28
5371 6711 6714 28
5372 6711 6715 28
5373 6716 6717 28
5374 6716 6718 28
5375 6716 6719 28
5376 6716 6720 28
5377 6721 6722 28
5378 6721 6723 28
5379 6721 6724 28
5380 6721 6725 28
5381 6726 6727 28
5382 6726 6728 28
5383 6726 6729 28
5384 6726 6730 28
5385 6731 6732 28
5386 6731 6733 28
5387 6731 6734 28
5388 6731 6735 28
5389 6736 6737 28
5390 6736 6738 28
5391 6736 6739 28
5392 6736 6740 28
5393 6741 6742 28
5394 6741 6743 28
5395 6741 6744 28
5396 6741 6745 28
5397 6746 6747 28
5398 6746 6748 28
5399 6746 6749 28
5400 6746 6750 28
5401 6751 6752 28
5402 6751 6753 28
5403 6751 6754 28
5404 6751 6755 28
5405 6756 6757 28
5406 6756 6758 28
5407 6756 6759 28
5408 6756 6760 28
5409 6761 6762 28
5410 6761 6763 28
5411 6761 6764 28
5412 6761 6765 28
5413 6766 6767 28
5414 6766 6768 28
5415 6766 6769 28
5416 6766 6770 28
5417 6771 6772 28
5418 6771 6773 28
5419 6771 6774 28
5420 6771 6775 28
5421 6776 6777 28
5422 6776 6778 28
5423 6776 6779 28
5424 6776 6780 28
5425 6781 6782 28
5426 6781 6783 28
5427 6781 6784 28
5428 6781 6785 28
5429 6786 6787 28
5430 6786 6788 28
5431 6786 6789 28
5432 6786 6790 28
5433 6791 6792 28
5434 6791 6793 28
5435 6791 6794 28
5436 6791 6795 28
5437 6796 6797 28
5438 6796 6798 28
5439 6796 6799 28
5440 6796 6800 28
5441 6801 6802 28
5442 6801 6803 28
5443 6801 6804 28
5444 6801 6805 28
5445 6806 6807 28
5446 6806 6808 28
5447 6806 6809 28
5448 6806 6810 28
5449 6811 6812 28
5450 6811 6813 28
5451 6811 6814 28
5452 6811 6815 28
5453 6816 6817 28
5454 6816 6818 28
5455 6816 6819 28
5456 6816 6820 28
5457 6821 6822 28
5458 6821 6823 28
5459 6821 6824 28
5460 6821 6825 28
5461 6826 6827 28
5462 6826 6828 28
5463 6826 6829 28
5464 6826 6830 28
5465 6831 6832 28
5466 6831 6833 28
5467 6831 6834 28
5468 6831 6835 28
5469 6836 6837 28
5470 6836 6838 28
5471 6836 6839 28
5472 6836 6840 28
5473 6841 6842 28
5474 6841 6843 28
5475 6841 6844 28
5476 6841 6845 28
5477 6846 6847 28
5478 6846 6848 28
5479 6846 6849 28
5480 6846 6850 28
5481 6851 6852 28
5482 6851 6853 28
5483 6851 6854 28
5484 6851 6855 28
5485 6856 6857 28
5486 6856 6858 28
5487 6856 6859 28
5488 6856 6860 28
5489 6861 6862 28
5490 6861 6863 28
5491 6861 6864 28
5492 6861 6865 28
5493 6866 6867 28
5494 6866 6868 28
5495 6866 6869 28
5496 6866 6870 28
5497 6871 6872 28
5498 6871 6873 28
5499 6871 6874 28
5500 6871 6875 28
5501 6876 6877 28
5502 6876 6878 28
5503 6876 6879 28
5504 6876 6880 28
5505 6881 6882 28
5506 6881 6883 28
5507 6881 6884 28
5508 6881 6885 28
5509 6886 6887 28
5510 6886 6888 28
5511 6886 6889 28
5512 6886 6890 28
5513 6891 6892 28
5514 6891 6893 28
5515 6891 6894 28
5516 6891 6895 28
5517 6896 6897 28
5518 6896 6898 28
5519 6896 6899 28
5520 6896 6900 28
5521 6901 6902 28
5522 6901 6903 28
5523 6901 6904 28
5524 6901 6905 28
5525 6906 6907 28
5526 6906 6908 28
5527 6906 6909 28
5528 6906 6910 28
5529 6911 6912 28
5530 6911 6913 28
5531 6911 6914 28
5532 6911 6915 28
5533 6916 6917 28
5534 6916 6918 28
5535 6916 6919 28
5536 6916 6920 28
5537 6921 6922 28
5538 6921 6923 28
5539 6921 6924 28
5540 6921 6925 28
5541 6926 6927 28
5542 6926 6928 28
5543 6926 6929 28
5544 6926 6930 28
5545 6931 6932 28
5546 6931 6933 28
5547 6931 6934 28
5548 6931 6935 28
5549 6936 6937 28
5550 6936 6938 28
5551 6936 6939 28
5552 6936 6940 28
5553 6941 6942 28
5554 6941 6943 28
5555 6941 6944 28
5556 6941 6945 28
5557 6946 6947 28
5558 6946 6948 28
5559 6946 6949 28
5560 6946 6950 28
5561 6951 6952 28
5562 6951 6953 28
5563 6951 6954 28
5564 6951 6955 28
5565 6956 6957 28
5566 6956 6958 28
5567 6956 6959 28
5568 6956 6960 28
5569 6961 6962 28
5570 6961 6963 28
5571 6961 6964 28
5572 6961 6965 28
5573 6966 6967 28
5574 6966 6968 28
5575 6966 6969 28
5576 6966 6970 28
5577 6971 6972 28
5578 6971 6973 28
5579 6971 6974 28
5580 6971 6975 28
5581 6976 6977 28
5582 6976 6978 28
5583 6976 6979 28
5584 6976 6980 28
5585 6981 6982 28
5586 6981 6983 28
5587 6981 6984 28
5588 6981 6985 28
5589 6986 6987 28
5590 6986 6988 28
5591 6986 6989 28
5592 6986 6990 28
5593 6991 6992 28
5594 6991 6993 28
5595 6991 6994 28
5596 6991 6995 28
5597 6996 6997 28
5598 6996 6998 28
5599 6996 6999 28
5600 6996 7000 28
5601 7001 7002 28
5602 7001 7003 28
5603 7001 7004 28
5604 7001 7005 28
5605 7006 7007 28
5606 7006 7008 28
5607 7006 7009 28
5608 7006 7010 28
5609 7011 7012 28
5610 7011 7013 28
5611 7011 7014 28
5612 7011 7015 28
5613 7016 7017 28
5614 7016 7018 28
5615 7016 7019 28
5616 7016 7020 28
5617 7021 7022 28
5618 7021 7023 28
5619 7021 7024 28
5620 7021 7025 28
5621 7026 7027 28
5622 7026 7028 28
5623 7026 7029 28
5624 7026 7030 28
5625 7031 7032 28
5626 7031 7033 28
5627 7031 7034 28
5628 7031 7035 28
5629 7036 7037 28
5630 7036 7038 28
5631 7036 7039 28
5632 7036 7040 28
5633 7041 7042 28
5634 7041 7043 28
5635 7041 7044 28
5636 7041 7045 28
5637 7046 7047 28
5638 7046 7048 28
5639 7046 7049 28
5640 7046 7050 28
5641 7051 7052 28
5642 7051 7053 28
5643 7051 7054 28
5644 7051 7055 28
5645 7056 7057 28
5646 7056 7058 28
5647 7056 7059 28
5648 7056 7060 28
5649 7061 7062 28
5650 7061 7063 28
5651 7061 7064 28
5652 7061 7065 28
5653 7066 7067 28
5654 7066 7068 28
5655 7066 7069 28
5656 7066 7070 28
5657 7071 7072 28
5658 7071 7073 28
5659 7071 7074 28
5660 7071 7075 28
5661 7076 7077 28
5662 7076 7078 28
5663 7076 7079 28
5664 7076 7080 28
5665 7081 7082 28
5666 7081 7083 28
5667 7081 7084 28
5668 7081 7085 28
5669 7086 7087 28
5670 7086 7088 28
5671 7086 7089 28
5672 7086 7090 28
5673 7091 7092 28
5674 7091 7093 28
5675 7091 7094 28
5676 7091 7095 28
5677 7096 7097 28
5678 7096 7098 28
5679 7096 7099 28
5680 7096 7100 28
5681 7101 7102 28
5682 7101 7103 28
5683 7101 7104 28
5684 7101 7105 28
5685 7106 7107 28
5686 7106 7108 28
5687 7106 7109 28
5688 7106 7110 28
5689 7111 7112 28
5690 7111 7113 28
5691 7111 7114 28
5692 7111 7115 28
5693 7116 7117 28
5694 7116 7118 28
5695 7116 7119 28
5696 7116 7120 28
5697 7121 7122 28
5698 7121 7123 28
5699 7121 7124 28
5700 7121 7125 28
5701 7126 7127 28
5702 7126 7128 28
5703 7126 7129 28
5704 7126 7130 28
5705 7131 7132 28
5706 7131 7133 28
5707 7131 7134 28
5708 7131 7135 28
5709 7136 7137 28
5710 7136 7138 28
5711 7136 7139 28
5712 7136 7140 28
5713 7141 7142 28
5714 7141 7143 28
5715 7141 7144 28
5716 7141 7145 28
5717 7146 7147 28
5718 7146 7148 28
5719 7146 7149 28
5720 7146 7150 28
5721 7151 7152 28
5722 7151 7153 28
5723 7151 7154 28
5724 7151 7155 28
5725 7156 7157 28
5726 7156 7158 28
5727 7156 7159 28
5728 7156 7160 28
5729 7161 7162 28
5730 7161 7163 28
5731 7161 7164 28
5732 7161 7165 28
5733 7166 7167 28
5734 7166 7168 28
5735 7166 7169 28
5736 7166 7170 28
5737 7171 7172 28
5738 7171 7173 28
5739 7171 7174 28
5740 7171 7175 28
5741 7176 7177 28
5742 7176 7178 28
5743 7176 7179 28
5744 7176 7180 28
5745 7181 7182 28
5746 7181 7183 28
5747 7181 7184 28
5748 7181 7185 28
5749 7186 7187 28
5750 7186 7188 28
5751 7186 7189 28
5752 7186 7190 28
5753 7191 7192 28
5754 7191 7193 28
5755 7191 7194 28
5756 7191 7195 28
5757 7196 7197 28
5758 7196 7198 28
5759 7196 7199 28
5760 7196 7200 28
5761 7201 7202 28
5762 7201 7203 28
5763 7201 7204 28
5764 7201 7205 28
5765 7206 7207 28
5766 7206 7208 28
5767 7206 7209 28
5768 7206 7210 28
5769 7211 7212 28
5770 7211 7213 28
5771 7211 7214 28
5772 7211 7215 28
5773 7216 7217 28
5774 7216 7218 28
5775 7216 7219 28
5776 7216 7220 28
5777 7221 7222 28
5778 7221 7223 28
5779 7221 7224 28
5780 7221 7225 28
5781 7226 7227 28
5782 7226 7228 28
5783 7226 7229 28
5784 7226 7230 28
5785 7231 7232 28
5786 7231 7233 28
5787 7231 7234 28
5788 7231 7235 28
5789 7236 7237 28
5790 7236 7238 28
5791 7236 7239 28
5792 7236 7240 28
5793 7241 7242 28
5794 7241 7243 28
5795 7241 7244 28
5796 7241 7245 28
5797 7246 7247 28
5798 7246 7248 28
5799 7246 7249 28
5800 7246 7250 28
5801 7251 7252 28
5802 7251 7253 28
5803 7251 7254 28
5804 7251 7255 28
5805 7256 7257 28
5806 7256 7258 28
5807 7256 7259 28
5808 7256 7260 28
5809 7261 7262 28
5810 7261 7263 28
5811 7261 7264 28
5812 7261 7265 28
5813 7266 7267 28
5814 7266 7268 28
5815 7266 7269 28
5816 7266 7270 28
5817 7271 7272 28
5818 7271 7273 28
5819 7271 7274 28
5820 7271 7275 28
5821 7276 7277 28
5822 7276 7278 28
5823 7276 7279 28
5824 7276 7280 28
5825 7281 7282 28
5826 7281 7283 28
5827 7281 7284 28
5828 7281 7285 28
5829 7286 7287 28
5830 7286 7288 28
5831 7286 7289 28
5832 7286 7290 28
5833 7291 7292 28
5834 7291 7293 28
5835 7291 7294 28
5836 7291 7295 28
5837 7296 7297 28
5838 7296 7298 28
5839 7296 7299 28
5840 7296 7300 28
5841 7301 7302 28
5842 7301 7303 28
5843 7301 7304 28
5844 7301 7305 28
5845 7306 7307 28
5846 7306 7308 28
5847 7306 7309 28
5848 7306 7310 28
5849 7311 7312 28
5850 7311 7313 28
5851 7311 7314 28
5852 7311 7315 28
5853 7316 7317 28
5854 7316 7318 28
5855 7316 7319 28
5856 7316 7320 28
5857 7321 7322 28
5858 7321 7323 28
5859 7321 7324 28
5860 7321 7325 28
5861 7326 7327 28
5862 7326 7328 28
5863 7326 7329 28
5864 7326 7330 28
5865 7331 7332 28
5866 7331 7333 28
5867 7331 7334 28
5868 7331 7335 28
5869 7336 7337 28
5870 7336 7338 28
5871 7336 7339 28
5872 7336 7340 28
5873 7341 7342 28
5874 7341 7343 28
5875 7341 7344 28
5876 7341 7345 28
5877 7346 7347 28
5878 7346 7348 28
5879 7346 7349 28
5880 7346 7350 28
5881 7351 7352 28
5882 7351 7353 28
5883 7351 7354 28
5884 7351 7355 28
5885 7356 7357 28
5886 7356 7358 28
5887 7356 7359 28
5888 7356 7360 28
5889 7361 7362 28
5890 7361 7363 28
5891 7361 7364 28
5892 7361 7365 28
5893 7366 7367 28
5894 7366 7368 28
5895 7366 7369 28
5896 7366 7370 28
5897 7371 7372 28
5898 7371 7373 28
5899 7371 7374 28
5900 7371 7375 28
5901 7376 7377 28
5902 7376 7378 28
5903 7376 7379 28
5904 7376 7380 28
5905 7381 7382 28
5906 7381 7383 28
5907 7381 7384 28
5908 7381 7385 28
5909 7386 7387 28
5910 7386 7388 28
5911 7386 7389 28
5912 7386 7390 28
5913 7391 7392 28
5914 7391 7393 28
5915 7391 7394 28
5916 7391 7395 28
5917 7396 7397 28
5918 7396 7398 28
5919 7396 7399 28
5920 7396 7400 28
5921 7401 7402 28
5922 7401 7403 28
5923 7401 7404 28
5924 7401 7405 28
5925 7406 7407 28
5926 7406 7408 28
5927 7406 7409 28
5928 7406 7410 28
5929 7411 7412 28
5930 7411 7413 28
5931 7411 7414 28
5932 7411 7415 28
5933 7416 7417 28
5934 7416 7418 28
5935 7416 7419 28
5936 7416 7420 28
5937 7421 7422 28
5938 7421 7423 28
5939 7421 7424 28
5940 7421 7425 28
5941 7426 7427 28
5942 7426 7428 28
5943 7426 7429 28
5944 7426 7430 28
5945 7431 7432 28
5946 7431 7433 28
5947 7431 7434 28
5948 7431 7435 28
5949 7436 7437 28
5950 7436 7438 28
5951 7436 7439 28
5952 7436 7440 28
5953 7441 7442 28
5954 7441 7443 28
5955 7441 7444 28
5956 7441 7445 28
5957 7446 7447 28
5958 7446 7448 28
5959 7446 7449 28
5960 7446 7450 28
5961 7451 7452 28
5962 7451 7453 28
5963 7451 7454 28
5964 7451 7455 28
5965 7456 7457 28
5966 7456 7458 28
5967 7456 7459 28
5968 7456 7460 28
5969 7461 7462 28
5970 7461 7463 28
5971 7461 7464 28
5972 7461 7465 28
5973 7466 7467 28
5974 7466 7468 28
5975 7466 7469 28
5976 7466 7470 28
5977 7471 7472 28
5978 7471 7473 28
5979 7471 7474 28
5980 7471 7475 28
5981 7476 7477 28
5982 7476 7478 28
5983 7476 7479 28
5984 7476 7480 28
5985 7481 7482 28
5986 7481 7483 28
5987 7481 7484 28
5988 7481 7485 28
5989 7486 7487 28
5990 7486 7488 28
5991 7486 7489 28
5992 7486 7490 28
5993 7491 7492 28
5994 7491 7493 28
5995 7491 7494 28
5996 7491 7495 28
5997 7496 7497 28
5998 7496 7498 28
5999 7496 7499 28
6000 7496 7500 28
6001 7501 7502 28
6002 7501 7503 28
6003 7501 7504 28
6004 7501 7505 28
6005 7506 7507 28
6006 7506 7508 28
6007 7506 7509 28
6008 7506 7510 28
6009 7511 7512 28
6010 7511 7513 28
6011 7511 7514 28
6012 7511 7515 28
6013 7516 7517 28
6014 7516 7518 28
6015 7516 7519 28
6016 7516 7520 28
6017 7521 7522 28
6018 7521 7523 28
6019 7521 7524 28
6020 7521 7525 28
6021 7526 7527 28
6022 7526 7528 28
6023 7526 7529 28
6024 7526 7530 28
6025 7531 7532 28
6026 7531 7533 28
6027 7531 7534 28
6028 7531 7535 28
6029 7536 7537 28
6030 7536 7538 28
6031 7536 7539 28
6032 7536 7540 28
6033 7541 7542 28
6034 7541 7543 28
6035 7541 7544 28
6036 7541 7545 28
6037 7546 7547 28
6038 7546 7548 28
6039 7546 7549 28
6040 7546 7550 28
6041 7551 7552 28
6042 7551 7553 28
6043 7551 7554 28
6044 7551 7555 28
6045 7556 7557 28
6046 7556 7558 28
6047 7556 7559 28
6048 7556 7560 28
6049 7561 7562 28
6050 7561 7563 28
6051 7561 7564 28
6052 7561 7565 28
6053 7566 7567 28
6054 7566 7568 28
6055 7566 7569 28
6056 7566 7570 28
6057 7571 7572 28
6058 7571 7573 28
6059 7571 7574 28
6060 7571 7575 28
6061 7576 7577 28
6062 7576 7578 28
6063 7576 7579 28
6064 7576 7580 28
6065 7581 7582 28
6066 7581 7583 28
6067 7581 7584 28
6068 7581 7585 28
6069 7586 7587 28
6070 7586 7588 28
6071 7586 7589 28
6072 7586 7590 28
6073 7591 7592 28
6074 7591 7593 28
6075 7591 7594 28
6076 7591 7595 28
6077 7596 7597 28
6078 7596 7598 28
6079 7596 7599 28
6080 7596 7600 28
6081 7601 7602 28
6082 7601 7603 28
6083 7601 7604 28
6084 7601 7605 28
6085 7606 7607 28
6086 7606 7608 28
6087 7606 7609 28
6088 7606 7610 28
6089 7611 7612 28
6090 7611 7613 28
6091 7611 7614 28
6092 7611 7615 28
6093 7616 7617 28
6094 7616 7618 28
6095 7616 7619 28
6096 7616 7620 28
6097 7621 7622 28
6098 7621 7623 28
6099 7621 7624 28
6100 7621 7625 28
6101 7626 7627 28
6102 7626 7628 28
6103 7626 7629 28
6104 7626 7630 28
6105 7631 7632 28
6106 7631 7633 28
6107 7631 7634 28
6108 7631 7635 28
6109 7636 7637 28
6110 7636 7638 28
6111 7636 7639 28
6112 7636 7640 28
6113 7641 7642 28
6114 7641 7643 28
6115 7641 7644 28
6116 7641 7645 28
6117 7646 7647 28
6118 7646 7648 28
6119 7646 7649 28
6120 7646 7650 28
6121 7651 7652 28
6122 7651 7653 28
6123 7651 7654 28
6124 7651 7655 28
6125 7656 7657 28
6126 7656 7658 28
6127 7656 7659 28
6128 7656 7660 28
6129 7661 7662 28
6130 7661 7663 28
6131 7661 7664 28
6132 7661 7665 28
6133 7666 7667 28
6134 7666 7668 28
6135 7666 7669 28
6136 7666 7670 28
6137 7671 7672 28
6138 7671 7673 28
6139 7671 7674 28
6140 7671 7675 28
6141 7676 7677 28
6142 7676 7678 28
6143 7676 7679 28
6144 7676 7680 28
6145 7681 7682 28
6146 7681 7683 28
6147 7681 7684 28
6148 7681 7685 28
6149 7686 7687 28
6150 7686 7688 28
6151 7686 7689 28
6152 7686 7690 28
6153 7691 7692 28
6154 7691 7693 28
6155 7691 7694 28
6156 7691 7695 28
6157 7696 7697 28
6158 7696 7698 28
6159 7696 7699 28
6160 7696 7700 28
6161 7701 7702 28
6162 7701 7703 28
6163 7701 7704 28
6164 7701 7705 28
6165 7706 7707 28
6166 7706 7708 28
6167 7706 7709 28
6168 7706 7710 28
6169 7711 7712 28
6170 7711 7713 28
6171 7711 7714 28
6172 7711 7715 28
6173 7716 7717 28
6174 7716 7718 28
6175 7716 7719 28
6176 7716 7720 28
6177 7721 7722 28
6178 7721 7723 28
6179 7721 7724 28
6180 7721 7725 28
6181 7726 7727 28
6182 7726 7728 28
6183 7726 7729 28
6184 7726 7730 28
6185 7731 7732 28
6186 7731 7733 28
6187 7731 7734 28
6188 7731 7735 28
6189 7736 7737 28
6190 7736 7738 28
6191 7736 7739 28
6192 7736 7740 28
6193 7741 7742 28
6194 7741 7743 28
6195 7741 7744 28
6196 7741 7745 28
6197 7746 7747 28
6198 7746 7748 28
6199 7746 7749 28
6200 7746 7750 28
6201 7751 7752 28
6202 7751 7753 28
6203 7751 7754 28
6204 7751 7755 28
6205 7756 7757 28
6206 7756 7758 28
6207 7756 7759 28
6208 7756 7760 28
6209 7761 7762 28
6210 7761 7763 28
6211 7761 7764 28
6212 7761 7765 28
6213 7766 7767 28
6214 7766 7768 28
6215 7766 7769 28
6216 7766 7770 28
6217 7771 7772 28
6218 7771 7773 28
6219 7771 7774 28
6220 7771 7775 28
6221 7776 7777 28
6222 7776 7778 28
6223 7776 7779 28
6224 7776 7780 28
6225 7781 7782 28
6226 7781 7783 28
6227 7781 7784 28
6228 7781 7785 28
6229 7786 7787 28
6230 7786 7788 28
6231 7786 7789 28
6232 7786 7790 28
6233 7791 7792 28
6234 7791 7793 28
6235 7791 7794 28
6236 7791 7795 28
6237 7796 7797 28
6238 7796 7798 28
6239 7796 7799 28
6240 7796 7800 28
6241 7801 7802 28
6242 7801 7803 28
6243 7801 7804 28
6244 7801 7805 28
6245 7806 7807 28
6246 7806 7808 28
6247 7806 7809 28
6248 7806 7810 28
6249 7811 7812 28
6250 7811 7813 28
6251 7811 7814 28
6252 7811 7815 28
6253 7816 7817 28
6254 7816 7818 28
6255 7816 7819 28
6256 7816 7820 28
6257 7821 7822 28
6258 7821 7823 28
6259 7821 7824 28
6260 7821 7825 28
6261 7826 7827 28
6262 7826 7828 28
6263 7826 7829 28
6264 7826 7830 28
6265 7831 7832 28
6266 7831 7833 28
6267 7831 7834 28
6268 7831 7835 28
6269 7836 7837 28
6270 7836 7838 28
6271 7836 7839 28
6272 7836 7840 28
6273 7841 7842 28
6274 7841 7843 28
6275 7841 7844 28
6276 7841 7845 28
6277 7846 7847 28
6278 7846 7848 28
6279 7846 7849 28
6280 7846 7850 28
6281 7851 7852 28
6282 7851 7853 28
6283 7851 7854 28
6284 7851 7855 28
6285 7856 7857 28
6286 7856 7858 28
6287 7856 7859 28
6288 7856 7860 28
6289 7861 7862 28
6290 7861 7863 28
6291 7861 7864 28
6292 7861 7865 28
6293 7866 7867 28
6294 7866 7868 28
6295 7866 7869 28
6296 7866 7870 28
6297 7871 7872 28
6298 7871 7873 28
6299 7871 7874 28
6300 7871 7875 28
6301 7876 7877 28
6302 7876 7878 28
6303 7876 7879 28
6304 7876 7880 28
6305 7881 7882 28
6306 7881 7883 28
6307 7881 7884 28
6308 7881 7885 28
6309 7886 7887 28
6310 7886 7888 28
6311 7886 7889 28
6312 7886 7890 28
6313 7891 7892 28
6314 7891 7893 28
6315 7891 7894 28
6316 7891 7895 28
6317 7896 7897 28
6318 7896 7898 28
6319 7896 7899 28
6320 7896 7900 28
6321 7901 7902 28
6322 7901 7903 28
6323 7901 7904 28
6324 7901 7905 28
6325 7906 7907 28
6326 7906 7908 28
6327 7906 7909 28
6328 7906 7910 28
6329 7911 7912 28
6330 7911 7913 28
6331 7911 7914 28
6332 7911 7915 28
6333 7916 7917 28
6334 7916 7918 28
6335 7916 7919 28
6336 7916 7920 28
6337 7921 7922 28
6338 7921 7923 28
6339 7921 7924 28
6340 7921 7925 28
6341 7926 7927 28
6342 7926 7928 28
6343 7926 7929 28
6344 7926 7930 28
6345 7931 7932 28
6346 7931 7933 28
6347 7931 7934 28
6348 7931 7935 28
6349 7936 7937 28
6350 7936 7938 28
6351 7936 7939 28
6352 7936 7940 28
6353 7941 7942 28
6354 7941 7943 28
6355 7941 7944 28
6356 7941 7945 28
6357 7946 7947 28
6358 7946 7948 28
6359 7946 7949 28
6360 7946 7950 28
6361 7951 7952 28
6362 7951 7953 28
6363 7951 7954 28
6364 7951 7955 28
6365 7956 7957 28
6366 7956 7958 28
6367 7956 7959 28
6368 7956 7960 28
6369 7961 7962 28
6370 7961 7963 28
6371 7961 7964 28
6372 7961 7965 28
6373 7966 7967 28
6374 7966 7968 28
6375 7966 7969 28
6376 7966 7970 28
6377 7971 7972 28
6378 7971 7973 28
6379 7971 7974 28
6380 7971 7975 28
6381 7976 7977 28
6382 7976 7978 28
6383 7976 7979 28
6384 7976 7980 28
6385 7981 7982 28
6386 7981 7983 28
6387 7981 7984 28
6388 7981 7985 28
6389 7986 7987 28
6390 7986 7988 28
6391 7986 7989 28
6392 7986 7990 28
6393 7991 7992 28
6394 7991 7993 28
6395 7991 7994 28
6396 7991 7995 28
6397 7996 7997 28
6398 7996 7998 28
6399 7996 7999 28
6400 7996 8000 28
6401 8001 8002 28
6402 8001 8003 28
6403 8001 8004 28
6404 8001 8005 28
6405 8006 8007 28
6406 8006 8008 28
6407 8006 8009 28
6408 8006 8010 28
6409 8011 8012 28
6410 8011 8013 28
6411 8011 8014 28
6412 8011 8015 28
6413 8016 8017 28
6414 8016 8018 28
6415 8016 8019 28
6416 8016 8020 28
6417 8021 8022 28
6418 8021 8023 28
6419 8021 8024 28
6420 8021 8025 28
6421 8026 8027 28
6422 8026 8028 28
6423 8026 8029 28
6424 8026 8030 28
6425 8031 8032 28
6426 8031 8033 28
6427 8031 8034 28
6428 8031 8035 28
6429 8036 8037 28
6430 8036 8038 28
6431 8036 8039 28
6432 8036 8040 28
6433 8041 8042 28
6434 8041 8043 28
6435 8041 8044 28
6436 8041 8045 28
6437 8046 8047 28
6438 8046 8048 28
6439 8046 8049 28
6440 8046 8050 28
6441 8051 8052 28
6442 8051 8053 28
6443 8051 8054 28
6444 8051 8055 28
6445 8056 8057 28
6446 8056 8058 28
6447 8056 8059 28
6448 8056 8060 28
6449 8061 8062 28
6450 8061 8063 28
6451 8061 8064 28
6452 8061 8065 28
6453 8066 8067 28
6454 8066 8068 28
6455 8066 8069 28
6456 8066 8070 28
6457 8071 8072 28
6458 8071 8073 28
6459 8071 8074 28
6460 8071 8075 28
6461 8076 8077 28
6462 8076 8078 28
6463 8076 8079 28
6464 8076 8080 28
6465 8081 8082 28
6466 8081 8083 28
6467 8081 8084 28
6468 8081 8085 28
6469 8086 8087 28
6470 8086 8088 28
6471 8086 8089 28
6472 8086 8090 28
6473 8091 8092 28
6474 8091 8093 28
6475 8091 8094 28
6476 8091 8095 28
6477 8096 8097 28
6478 8096 8098 28
6479 8096 8099 28
6480 8096 8100 28
6481 8101 8102 28
6482 8101 8103 28
6483 8101 8104 28
6484 8101 8105 28
6485 8106 8107 28
6486 8106 8108 28
6487 8106 8109 28
6488 8106 8110 28
6489 8111 8112 28
6490 8111 8113 28
6491 8111 8114 28
6492 8111 8115 28
6493 8116 8117 28
6494 8116 8118 28
6495 8116 8119 28
6496 8116 8120 28
6497 8121 8122 28
6498 8121 8123 28
6499 8121 8124 28
6500 8121 8125 28
6501 8126 8127 28
6502 8126 8128 28
6503 8126 8129 28
6504 8126 8130 28
6505 8131 8132 28
6506 8131 8133 28
6507 8131 8134 28
6508 8131 8135 28
6509 8136 8137 28
6510 8136 8138 28
6511 8136 8139 28
6512 8136 8140 28
6513 8141 8142 28
6514 8141 8143 28
6515 8141 8144 28
6516 8141 8145 28
6517 8146 8147 28
6518 8146 8148 28
6519 8146 8149 28
6520 8146 8150 28
6521 8151 8152 28
6522 8151 8153 28
6523 8151 8154 28
6524 8151 8155 28
6525 8156 8157 28
6526 8156 8158 28
6527 8156 8159 28
6528 8156 8160 28
6529 8161 8162 28
6530 8161 8163 28
6531 8161 8164 28
6532 8161 8165 28
6533 8166 8167 28
6534 8166 8168 28
6535 8166 8169 28
6536 8166 8170 28
6537 8171 8172 28
6538 8171 8173 28
6539 8171 8174 28
6540 8171 8175 28
6541 8176 8177 28
6542 8176 8178 28
6543 8176 8179 28
6544 8176 8180 28
6545 8181 8182 28
6546 8181 8183 28
6547 8181 8184 28
6548 8181 8185 28
6549 8186 8187 28
6550 8186 8188 28
6551 8186 8189 28
6552 8186 8190 28
6553 8191 8192 28
6554 8191 8193 28
6555 8191 8194 28
6556 8191 8195 28
6557 8196 8197 28
6558 8196 8198 28
6559 8196 8199 28
6560 8196 8200 28
6561 8201 8202 28
6562 8201 8203 28
6563 8201 8204 28
6564 8201 8205 28
6565 8206 8207 28
6566 8206 8208 28
6567 8206 8209 28
6568 8206 8210 28
6569 8211 8212 28
6570 8211 8213 28
6571 8211 8214 28
6572 8211 8215 28
6573 8216 8217 28
6574 8216 8218 28
6575 8216 8219 28
6576 8216 8220 28
6577 8221 8222 28
6578 8221 8223 28
6579 8221 8224 28
6580 8221 8225 28
6581 8226 8227 28
6582 8226 8228 28
6583 8226 8229 28
6584 8226 8230 28
6585 8231 8232 28
6586 8231 8233 28
6587 8231 8234 28
6588 8231 8235 28
6589 8236 8237 28
6590 8236 8238 28
6591 8236 8239 28
6592 8236 8240 28
6593 8241 8242 28
6594 8241 8243 28
6595 8241 8244 28
6596 8241 8245 28
6597 8246 8247 28
6598 8246 8248 28
6599 8246 8249 28
6600 8246 8250 28
6601 8251 8252 28
6602 8251 8253 28
6603 8251 8254 28
6604 8251 8255 28
6605 8256 8257 28
6606 8256 8258 28
6607 8256 8259 28
6608 8256 8260 28
6609 8261 8262 28
6610 8261 8263 28
6611 8261 8264 28
6612 8261 8265 28
6613 8266 8267 28
6614 8266 8268 28
6615 8266 8269 28
6616 8266 8270 28
6617 8271 8272 28
6618 8271 8273 28
6619 8271 8274 28
6620 8271 8275 28
6621 8276 8277 28
6622 8276 8278 28
6623 8276 8279 28
6624 8276 8280 28
6625 8281 8282 28
6626 8281 8283 28
6627 8281 8284 28
6628 8281 8285 28
6629 8286 8287 28
6630 8286 8288 28
6631 8286 8289 28
6632 8286 8290 28
6633 8291 8292 28
6634 8291 8293 28
6635 8291 8294 28
6636 8291 8295 28
6637 8296 8297 28
6638 8296 8298 28
6639 8296 8299 28
6640 8296 8300 28
6641 8301 8302 28
6642 8301 8303 28
6643 8301 8304 28
6644 8301 8305 28
6645 8306 8307 28
6646 8306 8308 28
6647 8306 8309 28
6648 8306 8310 28
6649 8311 8312 28
6650 8311 8313 28
6651 8311 8314 28
6652 8311 8315 28
6653 8316 8317 28
6654 8316 8318 28
6655 8316 8319 28
6656 8316 8320 28
6657 8321 8322 28
6658 8321 8323 28
6659 8321 8324 28
6660 8321 8325 28
6661 8326 8327 28
6662 8326 8328 28
6663 8326 8329 28
6664 8326 8330 28
6665 8331 8332 28
6666 8331 8333 28
6667 8331 8334 28
6668 8331 8335 28
6669 8336 8337 28
6670 8336 8338 28
6671 8336 8339 28
6672 8336 8340 28
6673 8341 8342 28
6674 8341 8343 28
6675 8341 8344 28
6676 8341 8345 28
6677 8346 8347 28
6678 8346 8348 28
6679 8346 8349 28
6680 8346 8350 28
6681 8351 8352 28
6682 8351 8353 28
6683 8351 8354 28
6684 8351 8355 28
6685 8356 8357 28
6686 8356 8358 28
6687 8356 8359 28
6688 8356 8360 28
6689 8361 8362 28
6690 8361 8363 28
6691 8361 8364 28
6692 8361 8365 28
6693 8366 8367 28
6694 8366 8368 28
6695 8366 8369 28
6696 8366 8370 28
6697 8371 8372 28
6698 8371 8373 28
6699 8371 8374 28
6700 8371 8375 28
6701 8376 8377 28
6702 8376 8378 28
6703 8376 8379 28
6704 8376 8380 28
6705 8381 8382 28
6706 8381 8383 28
6707 8381 8384 28
6708 8381 8385 28
6709 8386 8387 28
6710 8386 8388 28
6711 8386 8389 28
6712 8386 8390 28
6713 8391 8392 28
6714 8391 8393 28
6715 8391 8394 28
6716 8391 8395 28
6717 8396 8397 28
6718 8396 8398 28
6719 8396 8399 28
6720 8396 8400 28
6721 8401 8402 28
6722 8401 8403 28
6723 8401 8404 28
6724 8401 8405 28
6725 8406 8407 28
6726 8406 8408 28
6727 8406 8409 28
6728 8406 8410 28
6729 8411 8412 28
6730 8411 8413 28
6731 8411 8414 28
6732 8411 8415 28
6733 8416 8417 28
6734 8416 8418 28
6735 8416 8419 28
6736 8416 8420 28
6737 8421 8422 28
6738 8421 8423 28
6739 8421 8424 28
6740 8421 8425 28
6741 8426 8427 28
6742 8426 8428 28
6743 8426 8429 28
6744 8426 8430 28
6745 8431 8432 28
6746 8431 8433 28
6747 8431 8434 28
6748 8431 8435 28
6749 8436 8437 28
6750 8436 8438 28
6751 8436 8439 28
6752 8436 8440 28
6753 8441 8442 28
6754 8441 8443 28
6755 8441 8444 28
6756 8441 8445 28
6757 8446 8447 28
6758 8446 8448 28
6759 8446 8449 28
6760 8446 8450 28
6761 8451 8452 28
6762 8451 8453 28
6763 8451 8454 28
6764 8451 8455 28
6765 8456 8457 28
6766 8456 8458 28
6767 8456 8459 28
6768 8456 8460 28
6769 8461 8462 28
6770 8461 8463 28
6771 8461 8464 28
6772 8461 8465 28
6773 8466 8467 28
6774 8466 8468 28
6775 8466 8469 28
6776 8466 8470 28
6777 8471 8472 28
6778 8471 8473 28
6779 8471 8474 28
6780 8471 8475 28
6781 8476 8477 28
6782 8476 8478 28
6783 8476 8479 28
6784 8476 8480 28
6785 8481 8482 28
6786 8481 8483 28
6787 8481 8484 28
6788 8481 8485 28
6789 8486 8487 28
6790 8486 8488 28
6791 8486 8489 28
6792 8486 8490 28
6793 8491 8492 28
6794 8491 8493 28
6795 8491 8494 28
6796 8491 8495 28
6797 8496 8497 28
6798 8496 8498 28
6799 8496 8499 28
6800 8496 8500 28
6801 8501 8502 28
6802 8501 8503 28
6803 8501 8504 28
6804 8501 8505 28
6805 8506 8507 28
6806 8506 8508 28
6807 8506 8509 28
6808 8506 8510 28
6809 8511 8512 28
6810 8511 8513 28
6811 8511 8514 28
6812 8511 8515 28
6813 8516 8517 28
6814 8516 8518 28
6815 8516 8519 28
6816 8516 8520 28
6817 8521 8522 28
6818 8521 8523 28
6819 8521 8524 28
6820 8521 8525 28
6821 8526 8527 28
6822 8526 8528 28
6823 8526 8529 28
6824 8526 8530 28
6825 8531 8532 28
6826 8531 8533 28
6827 8531 8534 28
6828 8531 8535 28
6829 8536 8537 28
6830 8536 8538 28
6831 8536 8539 28
6832 8536 8540 28
6833 8541 8542 28
6834 8541 8543 28
6835 8541 8544 28
6836 8541 8545 28
6837 8546 8547 28
6838 8546 8548 28
6839 8546 8549 28
6840 8546 8550 28
6841 8551 8552 28
6842 8551 8553 28
6843 8551 8554 28
6844 8551 8555 28
6845 8556 8557 28
6846 8556 8558 28
6847 8556 8559 28
6848 8556 8560 28
6849 8561 8562 28
6850 8561 8563 28
6851 8561 8564 28
6852 8561 8565 28
6853 8566 8567 28
6854 8566 8568 28
6855 8566 8569 28
6856 8566 8570 28
6857 8571 8572 28
6858 8571 8573 28
6859 8571 8574 28
6860 8571 8575 28
6861 8576 8577 28
6862 8576 8578 28
6863 8576 8579 28
6864 8576 8580 28
6865 8581 8582 28
6866 8581 8583 28
6867 8581 8584 28
6868 8581 8585 28
6869 8586 8587 28
6870 8586 8588 28
6871 8586 8589 28
6872 8586 8590 28
6873 8591 8592 28
6874 8591 8593 28
6875 8591 8594 28
6876 8591 8595 28
6877 8596 8597 28
6878 8596 8598 28
6879 8596 8599 28
6880 8596 8600 28
6881 8601 8602 28
6882 8601 8603 28
6883 8601 8604 28
6884 8601 8605 28
6885 8606 8607 28
6886 8606 8608 28
6887 8606 8609 28
6888 8606 8610 28
6889 8611 8612 28
6890 8611 8613 28
6891 8611 8614 28
6892 8611 8615 28
6893 8616 8617 28
6894 8616 8618 28
6895 8616 8619 28
6896 8616 8620 28
6897 8621 8622 28
6898 8621 8623 28
6899 8621 8624 28
6900 8621 8625 28
6901 8626 8627 28
6902 8626 8628 28
6903 8626 8629 28
6904 8626 8630 28
6905 8631 8632 28
6906 8631 8633 28
6907 8631 8634 28
6908 8631 8635 28
6909 8636 8637 28
6910 8636 8638 28
6911 8636 8639 28
6912 8636 8640 28
6913 8641 8642 28
6914 8641 8643 28
6915 8641 8644 28
6916 8641 8645 28
6917 8646 8647 28
6918 8646 8648 28
6919 8646 8649 28
6920 8646 8650 28
6921 8651 8652 28
6922 8651 8653 28
6923 8651 8654 28
6924 8651 8655 28
6925 8656 8657 28
6926 8656 8658 28
6927 8656 8659 28
6928 8656 8660 28
6929 8661 8662 28
6930 8661 8663 28
6931 8661 8664 28
6932 8661 8665 28
6933 8666 8667 28
6934 8666 8668 28
6935 8666 8669 28
6936 8666 8670 28
6937 8671 8672 28
6938 8671 8673 28
6939 8671 8674 28
6940 8671 8675 28
6941 8676 8677 28
6942 8676 8678 28
6943 8676 8679 28
6944 8676 8680 28
6945 8681 8682 28
6946 8681 8683 28
6947 8681 8684 28
6948 8681 8685 28
6949 8686 8687 28
6950 8686 8688 28
6951 8686 8689 28
6952 8686 8690 28
6953 8691 8692 28
6954 8691 8693 28
6955 8691 8694 28
6956 8691 8695 28
6957 8696 8697 28
6958 8696 8698 28
6959 8696 8699 28
6960 8696 8700 28
6961 8701 8702 28
6962 8701 8703 28
6963 8701 8704 28
6964 8701 8705 28
6965 8706 8707 28
6966 8706 8708 28
6967 8706 8709 28
6968 8706 8710 28
6969 8711 8712 28
6970 8711 8713 28
6971 8711 8714 28
6972 8711 8715 28
6973 8716 8717 28
6974 8716 8718 28
6975 8716 8719 28
6976 8716 8720 28
6977 8721 8722 28
6978 8721 8723 28
6979 8721 8724 28
6980 8721 8725 28
6981 8726 8727 28
6982 8726 8728 28
6983 8726 8729 28
6984 8726 8730 28
6985 8731 8732 28
6986 8731 8733 28
6987 8731 8734 28
6988 8731 8735 28
6989 8736 8737 28
6990 8736 8738 28
6991 8736 8739 28
6992 8736 8740 28
6993 8741 8742 28
6994 8741 8743 28
6995 8741 8744 28
6996 8741 8745 28
6997 8746 8747 28
6998 8746 8748 28
6999 8746 8749 28
7000 8746 8750 28
7001 8751 8752 28
7002 8751 8753 28
7003 8751 8754 28
7004 8751 8755 28
7005 8756 8757 28
7006 8756 8758 28
7007 8756 8759 28
7008 8756 8760 28
7009 8761 8762 28
7010 8761 8763 28
7011 8761 8764 28
7012 8761 8765 28
7013 8766 8767 28
7014 8766 8768 28
7015 8766 8769 28
7016 8766 8770 28
7017 8771 8772 28
7018 8771 8773 28
7019 8771 8774 28
7020 8771 8775 28
7021 8776 8777 28
7022 8776 8778 28
7023 8776 8779 28
7024 8776 8780 28
7025 8781 8782 28
7026 8781 8783 28
7027 8781 8784 28
7028 8781 8785 28
7029 8786 8787 28
7030 8786 8788 28
7031 8786 8789 28
7032 8786 8790 28
7033 8791 8792 28
7034 8791 8793 28
7035 8791 8794 28
7036 8791 8795 28
7037 8796 8797 28
7038 8796 8798 28
7039 8796 8799 28
7040 8796 8800 28
7041 8801 8802 28
7042 8801 8803 28
7043 8801 8804 28
7044 8801 8805 28
7045 8806 8807 28
7046 8806 8808 28
7047 8806 8809 28
7048 8806 8810 28
7049 8811 8812 28
7050 8811 8813 28
7051 8811 8814 28
7052 8811 8815 28
7053 8816 8817 28
7054 8816 8818 28
7055 8816 8819 28
7056 8816 8820 28
7057 8821 8822 28
7058 8821 8823 28
7059 8821 8824 28
7060 8821 8825 28
7061 8826 8827 28
7062 8826 8828 28
7063 8826 8829 28
7064 8826 8830 28
7065 8831 8832 28
7066 8831 8833 28
7067 8831 8834 28
7068 8831 8835 28
7069 8836 8837 28
7070 8836 8838 28
7071 8836 8839 28
7072 8836 8840 28
7073 8841 8842 28
7074 8841 8843 28
7075 8841 8844 28
7076 8841 8845 28
7077 8846 8847 28
7078 8846 8848 28
7079 8846 8849 28
7080 8846 8850 28
7081 8851 8852 28
7082 8851 8853 28
7083 8851 8854 28
7084 8851 8855 28
7085 8856 8857 28
7086 8856 8858 28
7087 8856 8859 28
7088 8856 8860 28
7089 8861 8862 28
7090 8861 8863 28
7091 8861 8864 28
7092 8861 8865 28
7093 8866 8867 28
7094 8866 8868 28
7095 8866 8869 28
7096 8866 8870 28
7097 8871 8872 28
7098 8871 8873 28
7099 8871 8874 28
7100 8871 8875 28
7101 8876 8877 28
7102 8876 8878 28
7103 8876 8879 28
7104 8876 8880 28
7105 8881 8882 28
7106 8881 8883 28
7107 8881 8884 28
7108 8881 8885 28
7109 8886 8887 28
7110 8886 8888 28
7111 8886 8889 28
7112 8886 8890 28
7113 8891 8892 28
7114 8891 8893 28
7115 8891 8894 28
7116 8891 8895 28
7117 8896 8897 28
7118 8896 8898 28
7119 8896 8899 28
7120 8896 8900 28
7121 8901 8902 28
7122 8901 8903 28
7123 8901 8904 28
7124 8901 8905 28
7125 8906 8907 28
7126 8906 8908 28
7127 8906 8909 28
7128 8906 8910 28
7129 8911 8912 28
7130 8911 8913 28
7131 8911 8914 28
7132 8911 8915 28
7133 8916 8917 28
7134 8916 8918 28
7135 8916 8919 28
7136 8916 8920 28
7137 8921 8922 28
7138 8921 8923 28
7139 8921 8924 28
7140 8921 8925 28
7141 8926 8927 28
7142 8926 8928 28
7143 8926 8929 28
7144 8926 8930 28
7145 8931 8932 28
7146 8931 8933 28
7147 8931 8934 28
7148 8931 8935 28
7149 8936 8937 28
7150 8936 8938 28
7151 8936 8939 28
7152 8936 8940 28
7153 8941 8942 28
7154 8941 8943 28
7155 8941 8944 28
7156 8941 8945 28
7157 8946 8947 28
7158 8946 8948 28
7159 8946 8949 28
7160 8946 8950 28
7161 8951 8952 28
7162 8951 8953 28
7163 8951 8954 28
7164 8951 8955 28
7165 8956 8957 28
7166 8956 8958 28
7167 8956 8959 28
7168 8956 8960 28
7169 8961 8962 28
7170 8961 8963 28
7171 8961 8964 28
7172 8961 8965 28
7173 8966 8967 28
7174 8966 8968 28
7175 8966 8969 28
7176 8966 8970 28
7177 8971 8972 28
7178 8971 8973 28
7179 8971 8974 28
7180 8971 8975 28
7181 8976 8977 28
7182 8976 8978 28
7183 8976 8979 28
7184 8976 8980 28
7185 8981 8982 28
7186 8981 8983 28
7187 8981 8984 28
7188 8981 8985 28
7189 8986 8987 28
7190 8986 8988 28
7191 8986 8989 28
7192 8986 8990 28
7193 8991 8992 28
7194 8991 8993 28
7195 8991 8994 28
7196 8991 8995 28
7197 8996 8997 28
7198 8996 8998 28
7199 8996 8999 28
7200 8996 9000 28
7201 9001 9002 28
7202 9001 9003 28
7203 9001 9004 28
7204 9001 9005 28
7205 9006 9007 28
7206 9006 9008 28
7207 9006 9009 28
7208 9006 9010 28
7209 9011 9012 28
7210 9011 9013 28
7211 9011 9014 28
7212 9011 9015 28
7213 9016 9017 28
7214 9016 9018 28
7215 9016 9019 28
7216 9016 9020 28
7217 9021 9022 28
7218 9021 9023 28
7219 9021 9024 28
7220 9021 9025 28
7221 9026 9027 28
7222 9026 9028 28
7223 9026 9029 28
7224 9026 9030 28
7225 9031 9032 28
7226 9031 9033 28
7227 9031 9034 28
7228 9031 9035 28
7229 9036 9037 28
7230 9036 9038 28
7231 9036 9039 28
7232 9036 9040 28
7233 9041 9042 28
7234 9041 9043 28
7235 9041 9044 28
7236 9041 9045 28
7237 9046 9047 28
7238 9046 9048 28
7239 9046 9049 28
7240 9046 9050 28
7241 9051 9052 28
7242 9051 9053 28
7243 9051 9054 28
7244 9051 9055 28
7245 9056 9057 28
7246 9056 9058 28
7247 9056 9059 28
7248 9056 9060 28
7249 9061 9062 28
7250 9061 9063 28
7251 9061 9064 28
7252 9061 9065 28
7253 9066 9067 28
7254 9066 9068 28
7255 9066 9069 28
7256 9066 9070 28
7257 9071 9072 28
7258 9071 9073 28
7259 9071 9074 28
7260 9071 9075 28
7261 9076 9077 28
7262 9076 9078 28
7263 9076 9079 28
7264 9076 9080 28
7265 9081 9082 28
7266 9081 9083 28
7267 9081 9084 28
7268 9081 9085 28
7269 9086 9087 28
7270 9086 9088 28
7271 9086 9089 28
7272 9086 9090 28
7273 9091 9092 28
7274 9091 9093 28
7275 9091 9094 28
7276 9091 9095 28
7277 9096 9097 28
7278 9096 9098 28
7279 9096 9099 28
7280 9096 9100 28
7281 9101 9102 28
7282 9101 9103 28
7283 9101 9104 28
7284 9101 9105 28
7285 9106 9107 28
7286 9106 9108 28
7287 9106 9109 28
7288 9106 9110 28
7289 9111 9112 28
7290 9111 9113 28
7291 9111 9114 28
7292 9111 9115 28
7293 9116 9117 28
7294 9116 9118 28
7295 9116 9119 28
7296 9116 9120 28
7297 9121 9122 28
7298 9121 9123 28
7299 9121 9124 28
7300 9121 9125 28
7301 9126 9127 28
7302 9126 9128 28
7303 9126 9129 28
7304 9126 9130 28
7305 9131 9132 28
7306 9131 9133 28
7307 9131 9134 28
7308 9131 9135 28
7309 9136 9137 28
7310 9136 9138 28
7311 9136 9139 28
7312 9136 9140 28
7313 9141 9142 28
7314 9141 9143 28
7315 9141 9144 28
7316 9141 9145 28
7317 9146 9147 28
7318 9146 9148 28
7319 9146 9149 28
7320 9146 9150 28
7321 9151 9152 28
7322 9151 9153 28
7323 9151 9154 28
7324 9151 9155 28
7325 9156 9157 28
7326 9156 9158 28
7327 9156 9159 28
7328 9156 9160 28
7329 9161 9162 28
7330 9161 9163 28
7331 9161 9164 28
7332 9161 9165 28
7333 9166 9167 28
7334 9166 9168 28
7335 9166 9169 28
7336 9166 9170 28
7337 9171 9172 28
7338 9171 9173 28
7339 9171 9174 28
7340 9171 9175 28
7341 9176 9177 28
7342 9176 9178 28
7343 9176 9179 28
7344 9176 9180 28
7345 9181 9182 28
7346 9181 9183 28
7347 9181 9184 28
7348 9181 9185 28
7349 9186 9187 28
7350 9186 9188 28
7351 9186 9189 28
7352 9186 9190 28
7353 9191 9192 28
7354 9191 9193 28
7355 9191 9194 28
7356 9191 9195 28
7357 9196 9197 28
7358 9196 9198 28
7359 9196 9199 28
7360 9196 9200 28
7361 9201 9202 28
7362 9201 9203 28
7363 9201 9204 28
7364 9201 9205 28
7365 9206 9207 28
7366 9206 9208 28
7367 9206 9209 28
7368 9206 9210 28
7369 9211 9212 28
7370 9211 9213 28
7371 9211 9214 28
7372 9211 9215 28
7373 9216 9217 28
7374 9216 9218 28
7375 9216 9219 28
7376 9216 9220 28
7377 9221 9222 28
7378 9221 9223 28
7379 9221 9224 28
7380 9221 9225 28
7381 9226 9227 28
7382 9226 9228 28
7383 9226 9229 28
7384 9226 9230 28
7385 9231 9232 28
7386 9231 9233 28
7387 9231 9234 28
7388 9231 9235 28
7389 9236 9237 28
7390 9236 9238 28
7391 9236 9239 28
7392 9236 9240 28
7393 9241 9242 28
7394 9241 9243 28
7395 9241 9244 28
7396 9241 9245 28
7397 9246 9247 28
7398 9246 9248 28
7399 9246 9249 28
7400 9246 9250 28
7401 9251 9252 28
7402 9251 9253 28
7403 9251 9254 28
7404 9251 9255 28
7405 9256 9257 28
7406 9256 9258 28
7407 9256 9259 28
7408 9256 9260 28
7409 9261 9262 28
7410 9261 9263 28
7411 9261 9264 28
7412 9261 9265 28
7413 9266 9267 28
7414 9266 9268 28
7415 9266 9269 28
7416 9266 9270 28
7417 9271 9272 28
7418 9271 9273 28
7419 9271 9274 28
7420 9271 9275 28
7421 9276 9277 28
7422 9276 9278 28
7423 9276 9279 28
7424 9276 9280 28
7425 9281 9282 28
7426 9281 9283 28
7427 9281 9284 28
7428 9281 9285 28
7429 9286 9287 28
7430 9286 9288 28
7431 9286 9289 28
7432 9286 9290 28
7433 9291 9292 28
7434 9291 9293 28
7435 9291 9294 28
7436 9291 9295 28
7437 9296 9297 28
7438 9296 9298 28
7439 9296 9299 28
7440 9296 9300 28
7441 9301 9302 28
7442 9301 9303 28
7443 9301 9304 28
7444 9301 9305 28
7445 9306 9307 28
7446 9306 9308 28
7447 9306 9309 28
7448 9306 9310 28
7449 9311 9312 28
7450 9311 9313 28
7451 9311 9314 28
7452 9311 9315 28
7453 9316 9317 28
7454 9316 9318 28
7455 9316 9319 28
7456 9316 9320 28
7457 9321 9322 28
7458 9321 9323 28
7459 9321 9324 28
7460 9321 9325 28
7461 9326 9327 28
7462 9326 9328 28
7463 9326 9329 28
7464 9326 9330 28
7465 9331 9332 28
7466 9331 9333 28
7467 9331 9334 28
7468 9331 9335 28
7469 9336 9337 28
7470 9336 9338 28
7471 9336 9339 28
7472 9336 9340 28
7473 9341 9342 28
7474 9341 9343 28
7475 9341 9344 28
7476 9341 9345 28
7477 9346 9347 28
7478 9346 9348 28
7479 9346 9349 28
7480 9346 9350 28
7481 9351 9352 28
7482 9351 9353 28
7483 9351 9354 28
7484 9351 9355 28
7485 9356 9357 28
7486 9356 9358 28
7487 9356 9359 28
7488 9356 9360 28
7489 9361 9362 28
7490 9361 9363 28
7491 9361 9364 28
7492 9361 9365 28
7493 9366 9367 28
7494 9366 9368 28
7495 9366 9369 28
7496 9366 9370 28
7497 9371 9372 28
7498 9371 9373 28
7499 9371 9374 28
7500 9371 9375 28
7501 9376 9377 28
7502 9376 9378 28
7503 9376 9379 28
7504 9376 9380 28
7505 9381 9382 28
7506 9381 9383 28
7507 9381 9384 28
7508 9381 9385 28
7509 9386 9387 28
7510 9386 9388 28
7511 9386 9389 28
7512 9386 9390 28
7513 9391 9392 28
7514 9391 9393 28
7515 9391 9394 28
7516 9391 9395 28
7517 9396 9397 28
7518 9396 9398 28
7519 9396 9399 28
7520 9396 9400 28
7521 9401 9402 28
7522 9401 9403 28
7523 9401 9404 28
7524 9401 9405 28
7525 9406 9407 28
7526 9406 9408 28
7527 9406 9409 28
7528 9406 9410 28
7529 9411 9412 28
7530 9411 9413 28
7531 9411 9414 28
7532 9411 9415 28
7533 9416 9417 28
7534 9416 9418 28
7535 9416 9419 28
7536 9416 9420 28
7537 9421 9422 28
7538 9421 9423 28
7539 9421 9424 28
7540 9421 9425 28
7541 9426 9427 28
7542 9426 9428 28
7543 9426 9429 28
7544 9426 9430 28
7545 9431 9432 28
7546 9431 9433 28
7547 9431 9434 28
7548 9431 9435 28
7549 9436 9437 28
7550 9436 9438 28
7551 9436 9439 28
7552 9436 9440 28
7553 9441 9442 28
7554 9441 9443 28
7555 9441 9444 28
7556 9441 9445 28
7557 9446 9447 28
7558 9446 9448 28
7559 9446 9449 28
7560 9446 9450 28
7561 9451 9452 28
7562 9451 9453 28
7563 9451 9454 28
7564 9451 9455 28
7565 9456 9457 28
7566 9456 9458 28
7567 9456 9459 28
7568 9456 9460 28
7569 9461 9462 28
7570 9461 9463 28
7571 9461 9464 28
7572 9461 9465 28
7573 9466 9467 28
7574 9466 9468 28
7575 9466 9469 28
7576 9466 9470 28
7577 9471 9472 28
7578 9471 9473 28
7579 9471 9474 28
7580 9471 9475 28
7581 9476 9477 28
7582 9476 9478 28
7583 9476 9479 28
7584 9476 9480 28
7585 9481 9482 28
7586 9481 9483 28
7587 9481 9484 28
7588 9481 9485 28
7589 9486 9487 28
7590 9486 9488 28
7591 9486 9489 28
7592 9486 9490 28
7593 9491 9492 28
7594 9491 9493 28
7595 9491 9494 28
7596 9491 9495 28
7597 9496 9497 28
7598 9496 9498 28
7599 9496 9499 28
7600 9496 9500 28
7601 9501 9502 28
7602 9501 9503 28
7603 9501 9504 28
7604 9501 9505 28
7605 9506 9507 28
7606 9506 9508 28
7607 9506 9509 28
7608 9506 9510 28
7609 9511 9512 28
7610 9511 9513 28
7611 9511 9514 28
7612 9511 9515 28
7613 9516 9517 28
7614 9516 9518 28
7615 9516 9519 28
7616 9516 9520 28
7617 9521 9522 28
7618 9521 9523 28
7619 9521 9524 28
7620 9521 9525 28
7621 9526 9527 28
7622 9526 9528 28
7623 9526 9529 28
7624 9526 9530 28
7625 9531 9532 28
7626 9531 9533 28
7627 9531 9534 28
7628 9531 9535 28
7629 9536 9537 28
7630 9536 9538 28
7631 9536 9539 28
7632 9536 9540 28
7633 9541 9542 28
7634 9541 9543 28
7635 9541 9544 28
7636 9541 9545 28
7637 9546 9547 28
7638 9546 9548 28
7639 9546 9549 28
7640 9546 9550 28
7641 9551 9552 28
7642 9551 9553 28
7643 9551 9554 28
7644 9551 9555 28
7645 9556 9557 28
7646 9556 9558 28
7647 9556 9559 28
7648 9556 9560 28
7649 9561 9562 28
7650 9561 9563 28
7651 9561 9564 28
7652 9561 9565 28
7653 9566 9567 28
7654 9566 9568 28
7655 9566 9569 28
7656 9566 9570 28
7657 9571 9572 28
7658 9571 9573 28
7659 9571 9574 28
7660 9571 9575 28
7661 9576 9577 28
7662 9576 9578 28
7663 9576 9579 28
7664 9576 9580 28
7665 9581 9582 28
7666 9581 9583 28
7667 9581 9584 28
7668 9581 9585 28
7669 9586 9587 28
7670 9586 9588 28
7671 9586 9589 28
7672 9586 9590 28
7673 9591 9592 28
7674 9591 9593 28
7675 9591 9594 28
7676 9591 9595 28
7677 9596 9597 28
7678 9596 9598 28
7679 9596 9599 28
7680 9596 9600 28
7681 9601 9602 28
7682 9601 9603 28
7683 9601 9604 28
7684 9601 9605 28
7685 9606 9607 28
7686 9606 9608 28
7687 9606 9609 28
7688 9606 9610 28
7689 9611 9612 28
7690 9611 9613 28
7691 9611 9614 28
7692 9611 9615 28
7693 9616 9617 28
7694 9616 9618 28
7695 9616 9619 28
7696 9616 9620 28
7697 9621 9622 28
7698 9621 9623 28
7699 9621 9624 28
7700 9621 9625 28
7701 9626 9627 28
7702 9626 9628 28
7703 9626 9629 28
7704 9626 9630 28
7705 9631 9632 28
7706 9631 9633 28
7707 9631 9634 28
7708 9631 9635 28
7709 9636 9637 28
7710 9636 9638 28
7711 9636 9639 28
7712 9636 9640 28
7713 9641 9642 28
7714 9641 9643 28
7715 9641 9644 28
7716 9641 9645 28
7717 9646 9647 28
7718 9646 9648 28
7719 9646 9649 28
7720 9646 9650 28
7721 9651 9652 28
7722 9651 9653 28
7723 9651 9654 28
7724 9651 9655 28
7725 9656 9657 28
7726 9656 9658 28
7727 9656 9659 28
7728 9656 9660 28
7729 9661 9662 28
7730 9661 9663 28
7731 9661 9664 28
7732 9661 9665 28
7733 9666 9667 28
7734 9666 9668 28
7735 9666 9669 28
7736 9666 9670 28
7737 9671 9672 28
7738 9671 9673 28
7739 9671 9674 28
7740 9671 9675 28
7741 9676 9677 28
7742 9676 9678 28
7743 9676 9679 28
7744 9676 9680 28
7745 9681 9682 28
7746 9681 9683 28
7747 9681 9684 28
7748 9681 9685 28
7749 9686 9687 28
7750 9686 9688 28
7751 9686 9689 28
7752 9686 9690 28
7753 9691 9692 28
7754 9691 9693 28
7755 9691 9694 28
7756 9691 9695 28
7757 9696 9697 28
7758 9696 9698 28
7759 9696 9699 28
7760 9696 9700 28
7761 9701 9702 28
7762 9701 9703 28
7763 9701 9704 28
7764 9701 9705 28
7765 9706 9707 28
7766 9706 9708 28
7767 9706 9709 28
7768 9706 9710 28
7769 9711 9712 28
7770 9711 9713 28
7771 9711 9714 28
7772 9711 9715 28
7773 9716 9717 28
7774 9716 9718 28
7775 9716 9719 28
7776 9716 9720 28
7777 9721 9722 28
7778 9721 9723 28
7779 9721 9724 28
7780 9721 9725 28
7781 9726 9727 28
7782 9726 9728 28
7783 9726 9729 28
7784 9726 9730 28
7785 9731 9732 28
7786 9731 9733 28
7787 9731 9734 28
7788 9731 9735 28
7789 9736 9737 28
7790 9736 9738 28
7791 9736 9739 28
7792 9736 9740 28
7793 9741 9742 28
7794 9741 9743 28
7795 9741 9744 28
7796 9741 9745 28
7797 9746 9747 28
7798 9746 9748 28
7799 9746 9749 28
7800 9746 9750 28
7801 9751 9752 28
7802 9751 9753 28
7803 9751 9754 28
7804 9751 9755 28
7805 9756 9757 28
7806 9756 9758 28
7807 9756 9759 28
7808 9756 9760 28
7809 9761 9762 28
7810 9761 9763 28
7811 9761 9764 28
7812 9761 9765 28
7813 9766 9767 28
7814 9766 9768 28
7815 9766 9769 28
7816 9766 9770 28
7817 9771 9772 28
7818 9771 9773 28
7819 9771 9774 28
7820 9771 9775 28
7821 9776 9777 28
7822 9776 9778 28
7823 9776 9779 28
7824 9776 9780 28
7825 9781 9782 28
7826 9781 9783 28
7827 9781 9784 28
7828 9781 9785 28
7829 9786 9787 28
7830 9786 9788 28
7831 9786 9789 28
7832 9786 9790 28
7833 9791 9792 28
7834 9791 9793 28
7835 9791 9794 28
7836 9791 9795 28
7837 9796 9797 28
7838 9796 9798 28
7839 9796 9799 28
7840 9796 9800 28
7841 9801 9802 28
7842 9801 9803 28
7843 9801 9804 28
7844 9801 9805 28
7845 9806 9807 28
7846 9806 9808 28
7847 9806 9809 28
7848 9806 9810 28
7849 9811 9812 28
7850 9811 9813 28
7851 9811 9814 28
7852 9811 9815 28
7853 9816 9817 28
7854 9816 9818 28
7855 9816 9819 28
7856 9816 9820 28
7857 9821 9822 28
7858 9821 9823 28
7859 9821 9824 28
7860 9821 9825 28
7861 9826 9827 28
7862 9826 9828 28
7863 9826 9829 28
7864 9826 9830 28
7865 9831 9832 28
7866 9831 9833 28
7867 9831 9834 28
7868 9831 9835 28
7869 9836 9837 28
7870 9836 9838 28
7871 9836 9839 28
7872 9836 9840 28
7873 9841 9842 28
7874 9841 9843 28
7875 9841 9844 28
7876 9841 9845 28
7877 9846 9847 28
7878 9846 9848 28
7879 9846 9849 28
7880 9846 9850 28
7881 9851 9852 28
7882 9851 9853 28
7883 9851 9854 28
7884 9851 9855 28
7885 9856 9857 28
7886 9856 9858 28
7887 9856 9859 28
7888 9856 9860 28
7889 9861 9862 28
7890 9861 9863 28
7891 9861 9864 28
7892 9861 9865 28
7893 9866 9867 28
7894 9866 9868 28
7895 9866 9869 28
7896 9866 9870 28
7897 9871 9872 28
7898 9871 9873 28
7899 9871 9874 28
7900 9871 9875 28
7901 9876 9877 28
7902 9876 9878 28
7903 9876 9879 28
7904 9876 9880 28
7905 9881 9882 28
7906 9881 9883 28
7907 9881 9884 28
7908 9881 9885 28
7909 9886 9887 28
7910 9886 9888 28
7911 9886 9889 28
7912 9886 9890 28
7913 9891 9892 28
7914 9891 9893 28
7915 9891 9894 28
7916 9891 9895 28
7917 9896 9897 28
7918 9896 9898 28
7919 9896 9899 28
7920 9896 9900 28
7921 9901 9902 28
7922 9901 9903 28
7923 9901 9904 28
7924 9901 9905 28
7925 9906 9907 28
7926 9906 9908 28
7927 9906 9909 28
7928 9906 9910 28
7929 9911 9912 28
7930 9911 9913 28
7931 9911 9914 28
7932 9911 9915 28
7933 9916 9917 28
7934 9916 9918 28
7935 9916 9919 28
7936 9916 9920 28
7937 9921 9922 28
7938 9921 9923 28
7939 9921 9924 28
7940 9921 9925 28
7941 9926 9927 28
7942 9926 9928 28
7943 9926 9929 28
7944 9926 9930 28
7945 9931 9932 28
7946 9931 9933 28
7947 9931 9934 28
7948 9931 9935 28
7949 9936 9937 28
7950 9936 9938 28
7951 9936 9939 28
7952 9936 9940 28
7953 9941 9942 28
7954 9941 9943 28
7955 9941 9944 28
7956 9941 9945 28
7957 9946 9947 28
7958 9946 9948 28
7959 9946 9949 28
7960 9946 9950 28
7961 9951 9952 28
7962 9951 9953 28
7963 9951 9954 28
7964 9951 9955 28
7965 9956 9957 28
7966 9956 9958 28
7967 9956 9959 28
7968 9956 9960 28
7969 9961 9962 28
7970 9961 9963 28
7971 9961 9964 28
7972 9961 9965 28
7973 9966 9967 28
7974 9966 9968 28
7975 9966 9969 28
7976 9966 9970 28
7977 9971 9972 28
7978 9971 9973 28
7979 9971 9974 28
7980 9971 9975 28
7981 9976 9977 28
7982 9976 9978 28
7983 9976 9979 28
7984 9976 9980 28
7985 9981 9982 28
7986 9981 9983 28
7987 9981 9984 28
7988 9981 9985 28
7989 9986 9987 28
7990 9986 9988 28
7991 9986 9989 28
7992 9986 9990 28
7993 9991 9992 28
7994 9991 9993 28
7995 9991 9994 28
7996 9991 9995 28
7997 9996 9997 28
7998 9996 9998 28
7999 9996 9999 28
8000 9996 10000 28
8001 10001 10002 28
8002 10001 10003 28
8003 10001 10004 28
8004 10001 10005 28
8005 10006 10007 28
8006 10006 10008 28
8007 10006 10009 28
8008 10006 10010 28
8009 10011 10012 28
8010 10011 10013 28
8011 10011 10014 28
8012 10011 10015 28
8013 10016 10017 28
8014 10016 10018 28
8015 10016 10019 28
8016 10016 10020 28
8017 10021 10022 28
8018 10021 10023 28
8019 10021 10024 28
8020 10021 10025 28
8021 10026 10027 28
8022 10026 10028 28
8023 10026 10029 28
8024 10026 10030 28
8025 10031 10032 28
8026 10031 10033 28
8027 10031 10034 28
8028 10031 10035 28
8029 10036 10037 28
8030 10036 10038 28
8031 10036 10039 28
8032 10036 10040 28
8033 10041 10042 28
8034 10041 10043 28
8035 10041 10044 28
8036 10041 10045 28
8037 10046 10047 28
8038 10046 10048 28
8039 10046 10049 28
8040 10046 10050 28
8041 10051 10052 28
8042 10051 10053 28
8043 10051 10054 28
8044 10051 10055 28
8045 10056 10057 28
8046 10056 10058 28
8047 10056 10059 28
8048 10056 10060 28
8049 10061 10062 28
8050 10061 10063 28
8051 10061 10064 28
8052 10061 10065 28
8053 10066 10067 28
8054 10066 10068 28
8055 10066 10069 28
8056 10066 10070 28
8057 10071 10072 28
8058 10071 10073 28
8059 10071 10074 28
8060 10071 10075 28
8061 10076 10077 28
8062 10076 10078 28
8063 10076 10079 28
8064 10076 10080 28
8065 10081 10082 28
8066 10081 10083 28
8067 10081 10084 28
8068 10081 10085 28
8069 10086 10087 28
8070 10086 10088 28
8071 10086 10089 28
8072 10086 10090 28
8073 10091 10092 28
8074 10091 10093 28
8075 10091 10094 28
8076 10091 10095 28
8077 10096 10097 28
8078 10096 10098 28
8079 10096 10099 28
8080 10096 10100 28
8081 10101 10102 28
8082 10101 10103 28
8083 10101 10104 28
8084 10101 10105 28
8085 10106 10107 28
8086 10106 10108 28
8087 10106 10109 28
8088 10106 10110 28
8089 10111 10112 28
8090 10111 10113 28
8091 10111 10114 28
8092 10111 10115 28
8093 10116 10117 28
8094 10116 10118 28
8095 10116 10119 28
8096 10116 10120 28
8097 10121 10122 28
8098 10121 10123 28
8099 10121 10124 28
8100 10121 10125 28
8101 10126 10127 28
8102 10126 10128 28
8103 10126 10129 28
8104 10126 10130 28
8105 10131 10132 28
8106 10131 10133 28
8107 10131 10134 28
8108 10131 10135 28
8109 10136 10137 28
8110 10136 10138 28
8111 10136 10139 28
8112 10136 10140 28
8113 10141 10142 28
8114 10141 10143 28
8115 10141 10144 28
8116 10141 10145 28
8117 10146 10147 28
8118 10146 10148 28
8119 10146 10149 28
8120 10146 10150 28
8121 10151 10152 28
8122 10151 10153 28
8123 10151 10154 28
8124 10151 10155 28
8125 10156 10157 28
8126 10156 10158 28
8127 10156 10159 28
8128 10156 10160 28
8129 10161 10162 28
8130 10161 10163 28
8131 10161 10164 28
8132 10161 10165 28
8133 10166 10167 28
8134 10166 10168 28
8135 10166 10169 28
8136 10166 10170 28
8137 10171 10172 28
8138 10171 10173 28
8139 10171 10174 28
8140 10171 10175 28
8141 10176 10177 28
8142 10176 10178 28
8143 10176 10179 28
8144 10176 10180 28
8145 10181 10182 28
8146 10181 10183 28
8147 10181 10184 28
8148 10181 10185 28
8149 10186 10187 28
8150 10186 10188 28
8151 10186 10189 28
8152 10186 10190 28
8153 10191 10192 28
8154 10191 10193 28
8155 10191 10194 28
8156 10191 10195 28
8157 10196 10197 28
8158 10196 10198 28
8159 10196 10199 28
8160 10196 10200 28
8161 10201 10202 28
8162 10201 10203 28
8163 10201 10204 28
8164 10201 10205 28
8165 10206 10207 28
8166 10206 10208 28
8167 10206 10209 28
8168 10206 10210 28
8169 10211 10212 28
8170 10211 10213 28
8171 10211 10214 28
8172 10211 10215 28
8173 10216 10217 28
8174 10216 10218 28
8175 10216 10219 28
8176 10216 10220 28
8177 10221 10222 28
8178 10221 10223 28
8179 10221 10224 28
8180 10221 10225 28
8181 10226 10227 28
8182 10226 10228 28
8183 10226 10229 28
8184 10226 10230 28
8185 10231 10232 28
8186 10231 10233 28
8187 10231 10234 28
8188 10231 10235 28
8189 10236 10237 28
8190 10236 10238 28
8191 10236 10239 28
8192 10236 10240 28
8193 10241 10242 28
8194 10241 10243 28
8195 10241 10244 28
8196 10241 10245 28
8197 10246 10247 28
8198 10246 10248 28
8199 10246 10249 28
8200 10246 10250 28
8201 10251 10252 28
8202 10251 10253 28
8203 10251 10254 28
8204 10251 10255 28
8205 10256 10257 28
8206 10256 10258 28
8207 10256 10259 28
8208 10256 10260 28
8209 10261 10262 28
8210 10261 10263 28
8211 10261 10264 28
8212 10261 10265 28
8213 10266 10267 28
8214 10266 10268 28
8215 10266 10269 28
8216 10266 10270 28
8217 10271 10272 28
8218 10271 10273 28
8219 10271 10274 28
8220 10271 10275 28
8221 10276 10277 28
8222 10276 10278 28
8223 10276 10279 28
8224 10276 10280 28
8225 10281 10282 28
8226 10281 10283 28
8227 10281 10284 28
8228 10281 10285 28
8229 10286 10287 28
8230 10286 10288 28
8231 10286 10289 28
8232 10286 10290 28
8233 10291 10292 28
8234 10291 10293 28
8235 10291 10294 28
8236 10291 10295 28
8237 10296 10297 28
8238 10296 10298 28
8239 10296 10299 28
8240 10296 10300 28
8241 10301 10302 28
8242 10301 10303 28
8243 10301 10304 28
8244 10301 10305 28
8245 10306 10307 28
8246 10306 10308 28
8247 10306 10309 28
8248 10306 10310 28
8249 10311 10312 28
8250 10311 10313 28
8251 10311 10314 28
8252 10311 10315 28
8253 10316 10317 28
8254 10316 10318 28
8255 10316 10319 28
8256 10316 10320 28
8257 10321 10322 28
8258 10321 10323 28
8259 10321 10324 28
8260 10321 10325 28
8261 10326 10327 28
8262 10326 10328 28
8263 10326 10329 28
8264 10326 10330 28
8265 10331 10332 28
8266 10331 10333 28
8267 10331 10334 28
8268 10331 10335 28
8269 10336 10337 28
8270 10336 10338 28
8271 10336 10339 28
8272 10336 10340 28
8273 10341 10342 28
8274 10341 10343 28
8275 10341 10344 28
8276 10341 10345 28
8277 10346 10347 28
8278 10346 10348 28
8279 10346 10349 28
8280 10346 10350 28
8281 10351 10352 28
8282 10351 10353 28
8283 10351 10354 28
8284 10351 10355 28
8285 10356 10357 28
8286 10356 10358 28
8287 10356 10359 28
8288 10356 10360 28
8289 10361 10362 28
8290 10361 10363 28
8291 10361 10364 28
8292 10361 10365 28
8293 10366 10367 28
8294 10366 10368 28
8295 10366 10369 28
8296 10366 10370 28
8297 10371 10372 28
8298 10371 10373 28
8299 10371 10374 28
8300 10371 10375 28
8301 10376 10377 28
8302 10376 10378 28
8303 10376 10379 28
8304 10376 10380 28
8305 10381 10382 28
8306 10381 10383 28
8307 10381 10384 28
8308 10381 10385 28
8309 10386 10387 28
8310 10386 10388 28
8311 10386 10389 28
8312 10386 10390 28
8313 10391 10392 28
8314 10391 10393 28
8315 10391 10394 28
8316 10391 10395 28
8317 10396 10397 28
8318 10396 10398 28
8319 10396 10399 28
8320 10396 10400 28
8321 10401 10402 28
8322 10401 10403 28
8323 10401 10404 28
8324 10401 10405 28
8325 10406 10407 28
8326 10406 10408 28
8327 10406 10409 28
8328 10406 10410 28
8329 10411 10412 28
8330 10411 10413 28
8331 10411 10414 28
8332 10411 10415 28
8333 10416 10417 28
8334 10416 10418 28
8335 10416 10419 28
8336 10416 10420 28
8337 10421 10422 28
8338 10421 10423 28
8339 10421 10424 28
8340 10421 10425 28
8341 10426 10427 28
8342 10426 10428 28
8343 10426 10429 28
8344 10426 10430 28
8345 10431 10432 28
8346 10431 10433 28
8347 10431 10434 28
8348 10431 10435 28
8349 10436 10437 28
8350 10436 10438 28
8351 10436 10439 28
8352 10436 10440 28
8353 10441 10442 28
8354 10441 10443 28
8355 10441 10444 28
8356 10441 10445 28
8357 10446 10447 28
8358 10446 10448 28
8359 10446 10449 28
8360 10446 10450 28
8361 10451 10452 28
8362 10451 10453 28
8363 10451 10454 28
8364 10451 10455 28
8365 10456 10457 28
8366 10456 10458 28
8367 10456 10459 28
8368 10456 10460 28
8369 10461 10462 28
8370 10461 10463 28
8371 10461 10464 28
8372 10461 10465 28
8373 10466 10467 28
8374 10466 10468 28
8375 10466 10469 28
8376 10466 10470 28
8377 10471 10472 28
8378 10471 10473 28
8379 10471 10474 28
8380 10471 10475 28
8381 10476 10477 28
8382 10476 10478 28
8383 10476 10479 28
8384 10476 10480 28
8385 10481 10482 28
8386 10481 10483 28
8387 10481 10484 28
8388 10481 10485 28
8389 10486 10487 28
8390 10486 10488 28
8391 10486 10489 28
8392 10486 10490 28
8393 10491 10492 28
8394 10491 10493 28
8395 10491 10494 28
8396 10491 10495 28
8397 10496 10497 28
8398 10496 10498 28
8399 10496 10499 28
8400 10496 10500 28
8401 10501 10502 28
8402 10501 10503 28
8403 10501 10504 28
8404 10501 10505 28
8405 10506 10507 28
8406 10506 10508 28
8407 10506 10509 28
8408 10506 10510 28
8409 10511 10512 28
8410 10511 10513 28
8411 10511 10514 28
8412 10511 10515 28
8413 10516 10517 28
8414 10516 10518 28
8415 10516 10519 28
8416 10516 10520 28
8417 10521 10522 28
8418 10521 10523 28
8419 10521 10524 28
8420 10521 10525 28
8421 10526 10527 28
8422 10526 10528 28
8423 10526 10529 28
8424 10526 10530 28
8425 10531 10532 28
8426 10531 10533 28
8427 10531 10534 28
8428 10531 10535 28
8429 10536 10537 28
8430 10536 10538 28
8431 10536 10539 28
8432 10536 10540 28
8433 10541 10542 28
8434 10541 10543 28
8435 10541 10544 28
8436 10541 10545 28
8437 10546 10547 28
8438 10546 10548 28
8439 10546 10549 28
8440 10546 10550 28
8441 10551 10552 28
8442 10551 10553 28
8443 10551 10554 28
8444 10551 10555 28
8445 10556 10557 28
8446 10556 10558 28
8447 10556 10559 28
8448 10556 10560 28
8449 10561 10562 28
8450 10561 10563 28
8451 10561 10564 28
8452 10561 10565 28
8453 10566 10567 28
8454 10566 10568 28
8455 10566 10569 28
8456 10566 10570 28
8457 10571 10572 28
8458 10571 10573 28
8459 10571 10574 28
8460 10571 10575 28
8461 10576 10577 28
8462 10576 10578 28
8463 10576 10579 28
8464 10576 10580 28
8465 10581 10582 28
8466 10581 10583 28
8467 10581 10584 28
8468 10581 10585 28
8469 10586 10587 28
8470 10586 10588 28
8471 10586 10589 28
8472 10586 10590 28
8473 10591 10592 28
8474 10591 10593 28
8475 10591 10594 28
8476 10591 10595 28
8477 10596 10597 28
8478 10596 10598 28
8479 10596 10599 28
8480 10596 10600 28
8481 10601 10602 28
8482 10601 10603 28
8483 10601 10604 28
8484 10601 10605 28
8485 10606 10607 28
8486 10606 10608 28
8487 10606 10609 28
8488 10606 10610 28
8489 10611 10612 28
8490 10611 10613 28
8491 10611 10614 28
8492 10611 10615 28
8493 10616 10617 28
8494 10616 10618 28
8495 10616 10619 28
8496 10616 10620 28
8497 10621 10622 28
8498 10621 10623 28
8499 10621 10624 28
8500 10621 10625 28
8501 10626 10627 28
8502 10626 10628 28
8503 10626 10629 28
8504 10626 10630 28
8505 10631 10632 28
8506 10631 10633 28
8507 10631 10634 28
8508 10631 10635 28
8509 10636 10637 28
8510 10636 10638 28
8511 10636 10639 28
8512 10636 10640 28
8513 10641 10642 28
8514 10641 10643 28
8515 10641 10644 28
8516 10641 10645 28
8517 10646 10647 28
8518 10646 10648 28
8519 10646 10649 28
8520 10646 10650 28
8521 10651 10652 28
8522 10651 10653 28
8523 10651 10654 28
8524 10651 10655 28
8525 10656 10657 28
8526 10656 10658 28
8527 10656 10659 28
8528 10656 10660 28
8529 10661 10662 28
8530 10661 10663 28
8531 10661 10664 28
8532 10661 10665 28
8533 10666 10667 28
8534 10666 10668 28
8535 10666 10669 28
8536 10666 10670 28
8537 10671 10672 28
8538 10671 10673 28
8539 10671 10674 28
8540 10671 10675 28
8541 10676 10677 28
8542 10676 10678 28
8543 10676 10679 28
8544 10676 10680 28
8545 10681 10682 28
8546 10681 10683 28
8547 10681 10684 28
8548 10681 10685 28
8549 10686 10687 28
8550 10686 10688 28
8551 10686 10689 28
8552 10686 10690 28
8553 10691 10692 28
8554 10691 10693 28
8555 10691 10694 28
8556 10691 10695 28
8557 10696 10697 28
8558 10696 10698 28
8559 10696 10699 28
8560 10696 10700 28
8561 10701 10702 28
8562 10701 10703 28
8563 10701 10704 28
8564 10701 10705 28
8565 10706 10707 28
8566 10706 10708 28
8567 10706 10709 28
8568 10706 10710 28
8569 10711 10712 28
8570 10711 10713 28
8571 10711 10714 28
8572 10711 10715 28
8573 10716 10717 28
8574 10716 10718 28
8575 10716 10719 28
8576 10716 10720 28
8577 10721 10722 28
8578 10721 10723 28
8579 10721 10724 28
8580 10721 10725 28
8581 10726 10727 28
8582 10726 10728 28
8583 10726 10729 28
8584 10726 10730 28
8585 10731 10732 28
8586 10731 10733 28
8587 10731 10734 28
8588 10731 10735 28
8589 10736 10737 28
8590 10736 10738 28
8591 10736 10739 28
8592 10736 10740 28
8593 10741 10742 28
8594 10741 10743 28
8595 10741 10744 28
8596 10741 10745 28
8597 10746 10747 28
8598 10746 10748 28
8599 10746 10749 28
8600 10746 10750 28
8601 10751 10752 28
8602 10751 10753 28
8603 10751 10754 28
8604 10751 10755 28
8605 10756 10757 28
8606 10756 10758 28
8607 10756 10759 28
8608 10756 10760 28
8609 10761 10762 28
8610 10761 10763 28
8611 10761 10764 28
8612 10761 10765 28
8613 10766 10767 28
8614 10766 10768 28
8615 10766 10769 28
8616 10766 10770 28
8617 10771 10772 28
8618 10771 10773 28
8619 10771 10774 28
8620 10771 10775 28
8621 10776 10777 28
8622 10776 10778 28
8623 10776 10779 28
8624 10776 10780 28
8625 10781 10782 28
8626 10781 10783 28
8627 10781 10784 28
8628 10781 10785 28
8629 10786 10787 28
8630 10786 10788 28
8631 10786 10789 28
8632 10786 10790 28
8633 10791 10792 28
8634 10791 10793 28
8635 10791 10794 28
8636 10791 10795 28
8637 10796 10797 28
8638 10796 10798 28
8639 10796 10799 28
8640 10796 10800 28
8641 10801 10802 28
8642 10801 10803 28
8643 10801 10804 28
8644 10801 10805 28
8645 10806 10807 28
8646 10806 10808 28
8647 10806 10809 28
8648 10806 10810 28
8649 10811 10812 28
8650 10811 10813 28
8651 10811 10814 28
8652 10811 10815 28
8653 10816 10817 28
8654 10816 10818 28
8655 10816 10819 28
8656 10816 10820 28
8657 10821 10822 28
8658 10821 10823 28
8659 10821 10824 28
8660 10821 10825 28
8661 10826 10827 28
8662 10826 10828 28
8663 10826 10829 28
8664 10826 10830 28
8665 10831 10832 28
8666 10831 10833 28
8667 10831 10834 28
8668 10831 10835 28
8669 10836 10837 28
8670 10836 10838 28
8671 10836 10839 28
8672 10836 10840 28
8673 10841 10842 28
8674 10841 10843 28
8675 10841 10844 28
8676 10841 10845 28
8677 10846 10847 28
8678 10846 10848 28
8679 10846 10849 28
8680 10846 10850 28
8681 10851 10852 28
8682 10851 10853 28
8683 10851 10854 28
8684 10851 10855 28
8685 10856 10857 28
8686 10856 10858 28
8687 10856 10859 28
8688 10856 10860 28
8689 10861 10862 28
8690 10861 10863 28
8691 10861 10864 28
8692 10861 10865 28
8693 10866 10867 28
8694 10866 10868 28
8695 10866 10869 28
8696 10866 10870 28
8697 10871 10872 28
8698 10871 10873 28
8699 10871 10874 28
8700 10871 10875 28
8701 10876 10877 28
8702 10876 10878 28
8703 10876 10879 28
8704 10876 10880 28
8705 10881 10882 28
8706 10881 10883 28
8707 10881 10884 28
8708 10881 10885 28
8709 10886 10887 28
8710 10886 10888 28
8711 10886 10889 28
8712 10886 10890 28
8713 10891 10892 28
8714 10891 10893 28
8715 10891 10894 28
8716 10891 10895 28
8717 10896 10897 28
8718 10896 10898 28
8719 10896 10899 28
8720 10896 10900 28
8721 10901 10902 28
8722 10901 10903 28
8723 10901 10904 28
8724 10901 10905 28
8725 10906 10907 28
8726 10906 10908 28
8727 10906 10909 28
8728 10906 10910 28
8729 10911 10912 28
8730 10911 10913 28
8731 10911 10914 28
8732 10911 10915 28
8733 10916 10917 28
8734 10916 10918 28
8735 10916 10919 28
8736 10916 10920 28
8737 10921 10922 28
8738 10921 10923 28
8739 10921 10924 28
8740 10921 10925 28
8741 10926 10927 28
8742 10926 10928 28
8743 10926 10929 28
8744 10926 10930 28
8745 10931 10932 28
8746 10931 10933 28
8747 10931 10934 28
8748 10931 10935 28
8749 10936 10937 28
8750 10936 10938 28
8751 10936 10939 28
8752 10936 10940 28
8753 10941 10942 28
8754 10941 10943 28
8755 10941 10944 28
8756 10941 10945 28
8757 10946 10947 28
8758 10946 10948 28
8759 10946 10949 28
8760 10946 10950 28
8761 10951 10952 28
8762 10951 10953 28
8763 10951 10954 28
8764 10951 10955 28
8765 10956 10957 28
8766 10956 10958 28
8767 10956 10959 28
8768 10956 10960 28
8769 10961 10962 28
8770 10961 10963 28
8771 10961 10964 28
8772 10961 10965 28
8773 10966 10967 28
8774 10966 10968 28
8775 10966 10969 28
8776 10966 10970 28
8777 10971 10972 28
8778 10971 10973 28
8779 10971 10974 28
8780 10971 10975 28
8781 10976 10977 28
8782 10976 10978 28
8783 10976 10979 28
8784 10976 10980 28
8785 10981 10982 28
8786 10981 10983 28
8787 10981 10984 28
8788 10981 10985 28
8789 10986 10987 28
8790 10986 10988 28
8791 10986 10989 28
8792 10986 10990 28
8793 10991 10992 28
8794 10991 10993 28
8795 10991 10994 28
8796 10991 10995 28
8797 10996 10997 28
8798 10996 10998 28
8799 10996 10999 28
8800 10996 11000 28
8801 11001 11002 28
8802 11001 11003 28
8803 11001 11004 28
8804 11001 11005 28
8805 11006 11007 28
8806 11006 11008 28
8807 11006 11009 28
8808 11006 11010 28
8809 11011 11012 28
8810 11011 11013 28
8811 11011 11014 28
8812 11011 11015 28
8813 11016 11017 28
8814 11016 11018 28
8815 11016 11019 28
8816 11016 11020 28
8817 11021 11022 28
8818 11021 11023 28
8819 11021 11024 28
8820 11021 11025 28
8821 11026 11027 28
8822 11026 11028 28
8823 11026 11029 28
8824 11026 11030 28
8825 11031 11032 28
8826 11031 11033 28
8827 11031 11034 28
8828 11031 11035 28
8829 11036 11037 28
8830 11036 11038 28
8831 11036 11039 28
8832 11036 11040 28
8833 11041 11042 28
8834 11041 11043 28
8835 11041 11044 28
8836 11041 11045 28
8837 11046 11047 28
8838 11046 11048 28
8839 11046 11049 28
8840 11046 11050 28
8841 11051 11052 28
8842 11051 11053 28
8843 11051 11054 28
8844 11051 11055 28
8845 11056 11057 28
8846 11056 11058 28
8847 11056 11059 28
8848 11056 11060 28
8849 11061 11062 28
8850 11061 11063 28
8851 11061 11064 28
8852 11061 11065 28
8853 11066 11067 28
8854 11066 11068 28
8855 11066 11069 28
8856 11066 11070 28
8857 11071 11072 28
8858 11071 11073 28
8859 11071 11074 28
8860 11071 11075 28
8861 11076 11077 28
8862 11076 11078 28
8863 11076 11079 28
8864 11076 11080 28
8865 11081 11082 28
8866 11081 11083 28
8867 11081 11084 28
8868 11081 11085 28
8869 11086 11087 28
8870 11086 11088 28
8871 11086 11089 28
8872 11086 11090 28
8873 11091 11092 28
8874 11091 11093 28
8875 11091 11094 28
8876 11091 11095 28
8877 11096 11097 28
8878 11096 11098 28
8879 11096 11099 28
8880 11096 11100 28
8881 11101 11102 28
8882 11101 11103 28
8883 11101 11104 28
8884 11101 11105 28
8885 11106 11107 28
8886 11106 11108 28
8887 11106 11109 28
8888 11106 11110 28
8889 11111 11112 28
8890 11111 11113 28
8891 11111 11114 28
8892 11111 11115 28
8893 11116 11117 28
8894 11116 11118 28
8895 11116 11119 28
8896 11116 11120 28
8897 11121 11122 28
8898 11121 11123 28
8899 11121 11124 28
8900 11121 11125 28
8901 11126 11127 28
8902 11126 11128 28
8903 11126 11129 28
8904 11126 11130 28
8905 11131 11132 28
8906 11131 11133 28
8907 11131 11134 28
8908 11131 11135 28
8909 11136 11137 28
8910 11136 11138 28
8911 11136 11139 28
8912 11136 11140 28
8913 11141 11142 28
8914 11141 11143 28
8915 11141 11144 28
8916 11141 11145 28
8917 11146 11147 28
8918 11146 11148 28
8919 11146 11149 28
8920 11146 11150 28
8921 11151 11152 28
8922 11151 11153 28
8923 11151 11154 28
8924 11151 11155 28
8925 11156 11157 28
8926 11156 11158 28
8927 11156 11159 28
8928 11156 11160 28
8929 11161 11162 28
8930 11161 11163 28
8931 11161 11164 28
8932 11161 11165 28
8933 11166 11167 28
8934 11166 11168 28
8935 11166 11169 28
8936 11166 11170 28
8937 11171 11172 28
8938 11171 11173 28
8939 11171 11174 28
8940 11171 11175 28
8941 11176 11177 28
8942 11176 11178 28
8943 11176 11179 28
8944 11176 11180 28
8945 11181 11182 28
8946 11181 11183 28
8947 11181 11184 28
8948 11181 11185 28
8949 11186 11187 28
8950 11186 11188 28
8951 11186 11189 28
8952 11186 11190 28
8953 11191 11192 28
8954 11191 11193 28
8955 11191 11194 28
8956 11191 11195 28
8957 11196 11197 28
8958 11196 11198 28
8959 11196 11199 28
8960 11196 11200 28
8961 11201 11202 28
8962 11201 11203 28
8963 11201 11204 28
8964 11201 11205 28
8965 11206 11207 28
8966 11206 11208 28
8967 11206 11209 28
8968 11206 11210 28
8969 11211 11212 28
8970 11211 11213 28
8971 11211 11214 28
8972 11211 11215 28
8973 11216 11217 28
8974 11216 11218 28
8975 11216 11219 28
8976 11216 11220 28
8977 11221 11222 28
8978 11221 11223 28
8979 11221 11224 28
8980 11221 11225 28
8981 11226 11227 28
8982 11226 11228 28
8983 11226 11229 28
8984 11226 11230 28
8985 11231 11232 28
8986 11231 11233 28
8987 11231 11234 28
8988 11231 11235 28
8989 11236 11237 28
8990 11236 11238 28
8991 11236 11239 28
8992 11236 11240 28
8993 11241 11242 28
8994 11241 11243 28
8995 11241 11244 28
8996 11241 11245 28
8997 11246 11247 28
8998 11246 11248 28
8999 11246 11249 28
9000 11246 11250 28
9001 11251 11252 28
9002 11251 11253 28
9003 11251 11254 28
9004 11251 11255 28
9005 11256 11257 28
9006 11256 11258 28
9007 11256 11259 28
9008 11256 11260 28
9009 11261 11262 28
9010 11261 11263 28
9011 11261 11264 28
9012 11261 11265 28
9013 11266 11267 28
9014 11266 11268 28
9015 11266 11269 28
9016 11266 11270 28
9017 11271 11272 28
9018 11271 11273 28
9019 11271 11274 28
9020 11271 11275 28
9021 11276 11277 28
9022 11276 11278 28
9023 11276 11279 28
9024 11276 11280 28
9025 11281 11282 28
9026 11281 11283 28
9027 11281 11284 28
9028 11281 11285 28
9029 11286 11287 28
9030 11286 11288 28
9031 11286 11289 28
9032 11286 11290 28
9033 11291 11292 28
9034 11291 11293 28
9035 11291 11294 28
9036 11291 11295 28
9037 11296 11297 28
9038 11296 11298 28
9039 11296 11299 28
9040 11296 11300 28
9041 11301 11302 28
9042 11301 11303 28
9043 11301 11304 28
9044 11301 11305 28
9045 11306 11307 28
9046 11306 11308 28
9047 11306 11309 28
9048 11306 11310 28
9049 11311 11312 28
9050 11311 11313 28
9051 11311 11314 28
9052 11311 11315 28
9053 11316 11317 28
9054 11316 11318 28
9055 11316 11319 28
9056 11316 11320 28
9057 11321 11322 28
9058 11321 11323 28
9059 11321 11324 28
9060 11321 11325 28
9061 11326 11327 28
9062 11326 11328 28
9063 11326 11329 28
9064 11326 11330 28
9065 11331 11332 28
9066 11331 11333 28
9067 11331 11334 28
9068 11331 11335 28
9069 11336 11337 28
9070 11336 11338 28
9071 11336 11339 28
9072 11336 11340 28
9073 11341 11342 28
9074 11341 11343 28
9075 11341 11344 28
9076 11341 11345 28
9077 11346 11347 28
9078 11346 11348 28
9079 11346 11349 28
9080 11346 11350 28
9081 11351 11352 28
9082 11351 11353 28
9083 11351 11354 28
9084 11351 11355 28
9085 11356 11357 28
9086 11356 11358 28
9087 11356 11359 28
9088 11356 11360 28
9089 11361 11362 28
9090 11361 11363 28
9091 11361 11364 28
9092 11361 11365 28
9093 11366 11367 28
9094 11366 11368 28
9095 11366 11369 28
9096 11366 11370 28
9097 11371 11372 28
9098 11371 11373 28
9099 11371 11374 28
9100 11371 11375 28
9101 11376 11377 28
9102 11376 11378 28
9103 11376 11379 28
9104 11376 11380 28
9105 11381 11382 28
9106 11381 11383 28
9107 11381 11384 28
9108 11381 11385 28
9109 11386 11387 28
9110 11386 11388 28
9111 11386 11389 28
9112 11386 11390 28
9113 11391 11392 28
9114 11391 11393 28
9115 11391 11394 28
9116 11391 11395 28
9117 11396 11397 28
9118 11396 11398 28
9119 11396 11399 28
9120 11396 11400 28
9121 11401 11402 28
9122 11401 11403 28
9123 11401 11404 28
9124 11401 11405 28
9125 11406 11407 28
9126 11406 11408 28
9127 11406 11409 28
9128 11406 11410 28
9129 11411 11412 28
9130 11411 11413 28
9131 11411 11414 28
9132 11411 11415 28
9133 11416 11417 28
9134 11416 11418 28
9135 11416 11419 28
9136 11416 11420 28
9137 11421 11422 28
9138 11421 11423 28
9139 11421 11424 28
9140 11421 11425 28
9141 11426 11427 28
9142 11426 11428 28
9143 11426 11429 28
9144 11426 11430 28
9145 11431 11432 28
9146 11431 11433 28
9147 11431 11434 28
9148 11431 11435 28
9149 11436 11437 28
9150 11436 11438 28
9151 11436 11439 28
9152 11436 11440 28
9153 11441 11442 28
9154 11441 11443 28
9155 11441 11444 28
9156 11441 11445 28
9157 11446 11447 28
9158 11446 11448 28
9159 11446 11449 28
9160 11446 11450 28
9161 11451 11452 28
9162 11451 11453 28
9163 11451 11454 28
9164 11451 11455 28
9165 11456 11457 28
9166 11456 11458 28
9167 11456 11459 28
9168 11456 11460 28
9169 11461 11462 28
9170 11461 11463 28
9171 11461 11464 28
9172 11461 11465 28
9173 11466 11467 28
9174 11466 11468 28
9175 11466 11469 28
9176 11466 11470 28
9177 11471 11472 28
9178 11471 11473 28
9179 11471 11474 28
9180 11471 11475 28
9181 11476 11477 28
9182 11476 11478 28
9183 11476 11479 28
9184 11476 11480 28
9185 11481 11482 28
9186 11481 11483 28
9187 11481 11484 28
9188 11481 11485 28
9189 11486 11487 28
9190 11486 11488 28
9191 11486 11489 28
9192 11486 11490 28
9193 11491 11492 28
9194 11491 11493 28
9195 11491 11494 28
9196 11491 11495 28
9197 11496 11497 28
9198 11496 11498 28
9199 11496 11499 28
9200 11496 11500 28
9201 11501 11502 28
9202 11501 11503 28
9203 11501 11504 28
9204 11501 11505 28
9205 11506 11507 28
9206 11506 11508 28
9207 11506 11509 28
9208 11506 11510 28
9209 11511 11512 28
9210 11511 11513 28
9211 11511 11514 28
9212 11511 11515 28
9213 11516 11517 28
9214 11516 11518 28
9215 11516 11519 28
9216 11516 11520 28
9217 11521 11522 28
9218 11521 11523 28
9219 11521 11524 28
9220 11521 11525 28
9221 11526 11527 28
9222 11526 11528 28
9223 11526 11529 28
9224 11526 11530 28
9225 11531 11532 28
9226 11531 11533 28
9227 11531 11534 28
9228 11531 11535 28
9229 11536 11537 28
9230 11536 11538 28
9231 11536 11539 28
9232 11536 11540 28
9233 11541 11542 28
9234 11541 11543 28
9235 11541 11544 28
9236 11541 11545 28
9237 11546 11547 28
9238 11546 11548 28
9239 11546 11549 28
9240 11546 11550 28
9241 11551 11552 28
9242 11551 11553 28
9243 11551 11554 28
9244 11551 11555 28
9245 11556 11557 28
9246 11556 11558 28
9247 11556 11559 28
9248 11556 11560 28
9249 11561 11562 28
9250 11561 11563 28
9251 11561 11564 28
9252 11561 11565 28
9253 11566 11567 28
9254 11566 11568 28
9255 11566 11569 28
9256 11566 11570 28
9257 11571 11572 28
9258 11571 11573 28
9259 11571 11574 28
9260 11571 11575 28
9261 11576 11577 28
9262 11576 11578 28
9263 11576 11579 28
9264 11576 11580 28
9265 11581 11582 28
9266 11581 11583 28
9267 11581 11584 28
9268 11581 11585 28
9269 11586 11587 28
9270 11586 11588 28
9271 11586 11589 28
9272 11586 11590 28
9273 11591 11592 28
9274 11591 11593 28
9275 11591 11594 28
9276 11591 11595 28
9277 11596 11597 28
9278 11596 11598 28
9279 11596 11599 28
9280 11596 11600 28
9281 11601 11602 28
9282 11601 11603 28
9283 11601 11604 28
9284 11601 11605 28
9285 11606 11607 28
9286 11606 11608 28
9287 11606 11609 28
9288 11606 11610 28
9289 11611 11612 28
9290 11611 11613 28
9291 11611 11614 28
9292 11611 11615 28
9293 11616 11617 28
9294 11616 11618 28
9295 11616 11619 28
9296 11616 11620 28
9297 11621 11622 28
9298 11621 11623 28
9299 11621 11624 28
9300 11621 11625 28
9301 11626 11627 28
9302 11626 11628 28
9303 11626 11629 28
9304 11626 11630 28
9305 11631 11632 28
9306 11631 11633 28
9307 11631 11634 28
9308 11631 11635 28
9309 11636 11637 28
9310 11636 11638 28
9311 11636 11639 28
9312 11636 11640 28
9313 11641 11642 28
9314 11641 11643 28
9315 11641 11644 28
9316 11641 11645 28
9317 11646 11647 28
9318 11646 11648 28
9319 11646 11649 28
9320 11646 11650 28
9321 11651 11652 28
9322 11651 11653 28
9323 11651 11654 28
9324 11651 11655 28
9325 11656 11657 28
9326 11656 11658 28
9327 11656 11659 28
9328 11656 11660 28
9329 11661 11662 28
9330 11661 11663 28
9331 11661 11664 28
9332 11661 11665 28
9333 11666 11667 28
9334 11666 11668 28
9335 11666 11669 28
9336 11666 11670 28
9337 11671 11672 28
9338 11671 11673 28
9339 11671 11674 28
9340 11671 11675 28
9341 11676 11677 28
9342 11676 11678 28
9343 11676 11679 28
9344 11676 11680 28
9345 11681 11682 28
9346 11681 11683 28
9347 11681 11684 28
9348 11681 11685 28
9349 11686 11687 28
9350 11686 11688 28
9351 11686 11689 28
9352 11686 11690 28
9353 11691 11692 28
9354 11691 11693 28
9355 11691 11694 28
9356 11691 11695 28
9357 11696 11697 28
9358 11696 11698 28
9359 11696 11699 28
9360 11696 11700 28
9361 11701 11702 28
9362 11701 11703 28
9363 11701 11704 28
9364 11701 11705 28
9365 11706 11707 28
9366 11706 11708 28
9367 11706 11709 28
9368 11706 11710 28
9369 11711 11712 28
9370 11711 11713 28
9371 11711 11714 28
9372 11711 11715 28
9373 11716 11717 28
9374 11716 11718 28
9375 11716 11719 28
9376 11716 11720 28
9377 11721 11722 28
9378 11721 11723 28
9379 11721 11724 28
9380 11721 11725 28
9381 11726 11727 28
9382 11726 11728 28
9383 11726 11729 28
9384 11726 11730 28
9385 11731 11732 28
9386 11731 11733 28
9387 11731 11734 28
9388 11731 11735 28
9389 11736 11737 28
9390 11736 11738 28
9391 11736 11739 28
9392 11736 11740 28
9393 11741 11742 28
9394 11741 11743 28
9395 11741 11744 28
9396 11741 11745 28
9397 11746 11747 28
9398 11746 11748 28
9399 11746 11749 28
9400 11746 11750 28
9401 11751 11752 28
9402 11751 11753 28
9403 11751 11754 28
9404 11751 11755 28
9405 11756 11757 28
9406 11756 11758 28
9407 11756 11759 28
9408 11756 11760 28
9409 11761 11762 28
9410 11761 11763 28
9411 11761 11764 28
9412 11761 11765 28
9413 11766 11767 28
9414 11766 11768 28
9415 11766 11769 28
9416 11766 11770 28
9417 11771 11772 28
9418 11771 11773 28
9419 11771 11774 28
9420 11771 11775 28
9421 11776 11777 28
9422 11776 11778 28
9423 11776 11779 28
9424 11776 11780 28
9425 11781 11782 28
9426 11781 11783 28
9427 11781 11784 28
9428 11781 11785 28
9429 11786 11787 28
9430 11786 11788 28
9431 11786 11789 28
9432 11786 11790 28
9433 11791 11792 28
9434 11791 11793 28
9435 11791 11794 28
9436 11791 11795 28
9437 11796 11797 28
9438 11796 11798 28
9439 11796 11799 28
9440 11796 11800 28
9441 11801 11802 28
9442 11801 11803 28
9443 11801 11804 28
9444 11801 11805 28
9445 11806 11807 28
9446 11806 11808 28
9447 11806 11809 28
9448 11806 11810 28
9449 11811 11812 28
9450 11811 11813 28
9451 11811 11814 28
9452 11811 11815 28
9453 11816 11817 28
9454 11816 11818 28
9455 11816 11819 28
9456 11816 11820 28
9457 11821 11822 28
9458 11821 11823 28
9459 11821 11824 28
9460 11821 11825 28
9461 11826 11827 28
9462 11826 11828 28
9463 11826 11829 28
9464 11826 11830 28
9465 11831 11832 28
9466 11831 11833 28
9467 11831 11834 28
9468 11831 11835 28
9469 11836 11837 28
9470 11836 11838 28
9471 11836 11839 28
9472 11836 11840 28
9473 11841 11842 28
9474 11841 11843 28
9475 11841 11844 28
9476 11841 11845 28
9477 11846 11847 28
9478 11846 11848 28
9479 11846 11849 28
9480 11846 11850 28
9481 11851 11852 28
9482 11851 11853 28
9483 11851 11854 28
9484 11851 11855 28
9485 11856 11857 28
9486 11856 11858 28
9487 11856 11859 28
9488 11856 11860 28
9489 11861 11862 28
9490 11861 11863 28
9491 11861 11864 28
9492 11861 11865 28
9493 11866 11867 28
9494 11866 11868 28
9495 11866 11869 28
9496 11866 11870 28
9497 11871 11872 28
9498 11871 11873 28
9499 11871 11874 28
9500 11871 11875 28
9501 11876 11877 28
9502 11876 11878 28
9503 11876 11879 28
9504 11876 11880 28
9505 11881 11882 28
9506 11881 11883 28
9507 11881 11884 28
9508 11881 11885 28
9509 11886 11887 28
9510 11886 11888 28
9511 11886 11889 28
9512 11886 11890 28
9513 11891 11892 28
9514 11891 11893 28
9515 11891 11894 28
9516 11891 11895 28
9517 11896 11897 28
9518 11896 11898 28
9519 11896 11899 28
9520 11896 11900 28
9521 11901 11902 28
9522 11901 11903 28
9523 11901 11904 28
9524 11901 11905 28
9525 11906 11907 28
9526 11906 11908 28
9527 11906 11909 28
9528 11906 11910 28
9529 11911 11912 28
9530 11911 11913 28
9531 11911 11914 28
9532 11911 11915 28
9533 11916 11917 28
9534 11916 11918 28
9535 11916 11919 28
9536 11916 11920 28
9537 11921 11922 28
9538 11921 11923 28
9539 11921 11924 28
9540 11921 11925 28
9541 11926 11927 28
9542 11926 11928 28
9543 11926 11929 28
9544 11926 11930 28
9545 11931 11932 28
9546 11931 11933 28
9547 11931 11934 28
9548 11931 11935 28
9549 11936 11937 28
9550 11936 11938 28
9551 11936 11939 28
9552 11936 11940 28
9553 11941 11942 28
9554 11941 11943 28
9555 11941 11944 28
9556 11941 11945 28
9557 11946 11947 28
9558 11946 11948 28
9559 11946 11949 28
9560 11946 11950 28
9561 11951 11952 28
9562 11951 11953 28
9563 11951 11954 28
9564 11951 11955 28
9565 11956 11957 28
9566 11956 11958 28
9567 11956 11959 28
9568 11956 11960 28
9569 11961 11962 28
9570 11961 11963 28
9571 11961 11964 28
9572 11961 11965 28
9573 11966 11967 28
9574 11966 11968 28
9575 11966 11969 28
9576 11966 11970 28
9577 11971 11972 28
9578 11971 11973 28
9579 11971 11974 28
9580 11971 11975 28
9581 11976 11977 28
9582 11976 11978 28
9583 11976 11979 28
9584 11976 11980 28
9585 11981 11982 28
9586 11981 11983 28
9587 11981 11984 28
9588 11981 11985 28
9589 11986 11987 28
9590 11986 11988 28
9591 11986 11989 28
9592 11986 11990 28
9593 11991 11992 28
9594 11991 11993 28
9595 11991 11994 28
9596 11991 11995 28
9597 11996 11997 28
9598 11996 11998 28
9599 11996 11999 28
9600 11996 12000 28
9601 12001 12002 28
9602 12001 12003 28
9603 12001 12004 28
9604 12001 12005 28
9605 12006 12007 28
9606 12006 12008 28
9607 12006 12009 28
9608 12006 12010 28
9609 12011 12012 28
9610 12011 12013 28
9611 12011 12014 28
9612 12011 12015 28
9613 12016 12017 28
9614 12016 12018 28
9615 12016 12019 28
9616 12016 12020 28
9617 12021 12022 28
9618 12021 12023 28
9619 12021 12024 28
9620 12021 12025 28
9621 12026 12027 28
9622 12026 12028 28
9623 12026 12029 28
9624 12026 12030 28
9625 12031 12032 28
9626 12031 12033 28
9627 12031 12034 28
9628 12031 12035 28
9629 12036 12037 28
9630 12036 12038 28
9631 12036 12039 28
9632 12036 12040 28
9633 12041 12042 28
9634 12041 12043 28
9635 12041 12044 28
9636 12041 12045 28
9637 12046 12047 28
9638 12046 12048 28
9639 12046 12049 28
9640 12046 12050 28
9641 12051 12052 28
9642 12051 12053 28
9643 12051 12054 28
9644 12051 12055 28
9645 12056 12057 28
9646 12056 12058 28
9647 12056 12059 28
9648 12056 12060 28
9649 12061 12062 28
9650 12061 12063 28
9651 12061 12064 28
9652 12061 12065 28
9653 12066 12067 28
9654 12066 12068 28
9655 12066 12069 28
9656 12066 12070 28
9657 12071 12072 28
9658 12071 12073 28
9659 12071 12074 28
9660 12071 12075 28
9661 12076 12077 28
9662 12076 12078 28
9663 12076 12079 28
9664 12076 12080 28
9665 12081 12082 28
9666 12081 12083 28
9667 12081 12084 28
9668 12081 12085 28
9669 12086 12087 28
9670 12086 12088 28
9671 12086 12089 28
9672 12086 12090 28
9673 12091 12092 28
9674 12091 12093 28
9675 12091 12094 28
9676 12091 12095 28
9677 12096 12097 28
9678 12096 12098 28
9679 12096 12099 28
9680 12096 12100 28
9681 12101 12102 28
9682 12101 12103 28
9683 12101 12104 28
9684 12101 12105 28
9685 12106 12107 28
9686 12106 12108 28
9687 12106 12109 28
9688 12106 12110 28
9689 12111 12112 28
9690 12111 12113 28
9691 12111 12114 28
9692 12111 12115 28
9693 12116 12117 28
9694 12116 12118 28
9695 12116 12119 28
9696 12116 12120 28
9697 12121 12122 28
9698 12121 12123 28
9699 12121 12124 28
9700 12121 12125 28
9701 12126 12127 28
9702 12126 12128 28
9703 12126 12129 28
9704 12126 12130 28
9705 12131 12132 28
9706 12131 12133 28
9707 12131 12134 28
9708 12131 12135 28
9709 12136 12137 28
9710 12136 12138 28
9711 12136 12139 28
9712 12136 12140 28
9713 12141 12142 28
9714 12141 12143 28
9715 12141 12144 28
9716 12141 12145 28
9717 12146 12147 28
9718 12146 12148 28
9719 12146 12149 28
9720 12146 12150 28
9721 12151 12152 28
9722 12151 12153 28
9723 12151 12154 28
9724 12151 12155 28
9725 12156 12157 28
9726 12156 12158 28
9727 12156 12159 28
9728 12156 12160 28
9729 12161 12162 28
9730 12161 12163 28
9731 12161 12164 28
9732 12161 12165 28
9733 12166 12167 28
9734 12166 12168 28
9735 12166 12169 28
9736 12166 12170 28
9737 12171 12172 28
9738 12171 12173 28
9739 12171 12174 28
9740 12171 12175 28
9741 12176 12177 28
9742 12176 12178 28
9743 12176 12179 28
9744 12176 12180 28
9745 12181 12182 28
9746 12181 12183 28
9747 12181 12184 28
9748 12181 12185 28
9749 12186 12187 28
9750 12186 12188 28
9751 12186 12189 28
9752 12186 12190 28
9753 12191 12192 28
9754 12191 12193 28
9755 12191 12194 28
9756 12191 12195 28
9757 12196 12197 28
9758 12196 12198 28
9759 12196 12199 28
9760 12196 12200 28
9761 12201 12202 28
9762 12201 12203 28
9763 12201 12204 28
9764 12201 12205 28
9765 12206 12207 28
9766 12206 12208 28
9767 12206 12209 28
9768 12206 12210 28
9769 12211 12212 28
9770 12211 12213 28
9771 12211 12214 28
9772 12211 12215 28
9773 12216 12217 28
9774 12216 12218 28
9775 12216 12219 28
9776 12216 12220 28
9777 12221 12222 28
9778 12221 12223 28
9779 12221 12224 28
9780 12221 12225 28
9781 12226 12227 28
9782 12226 12228 28
9783 12226 12229 28
9784 12226 12230 28
9785 12231 12232 28
9786 12231 12233 28
9787 12231 12234 28
9788 12231 12235 28
9789 12236 12237 28
9790 12236 12238 28
9791 12236 12239 28
9792 12236 12240 28
9793 12241 12242 28
9794 12241 12243 28
9795 12241 12244 28
9796 12241 12245 28
9797 12246 12247 28
9798 12246 12248 28
9799 12246 12249 28
9800 12246 12250 28
9801 12251 12252 28
9802 12251 12253 28
9803 12251 12254 28
9804 12251 12255 28
9805 12256 12257 28
9806 12256 12258 28
9807 12256 12259 28
9808 12256 12260 28
9809 12261 12262 28
9810 12261 12263 28
9811 12261 12264 28
9812 12261 12265 28
9813 12266 12267 28
9814 12266 12268 28
9815 12266 12269 28
9816 12266 12270 28
9817 12271 12272 28
9818 12271 12273 28
9819 12271 12274 28
9820 12271 12275 28
9821 12276 12277 28
9822 12276 12278 28
9823 12276 12279 28
9824 12276 12280 28
9825 12281 12282 28
9826 12281 12283 28
9827 12281 12284 28
9828 12281 12285 28
9829 12286 12287 28
9830 12286 12288 28
9831 12286 12289 28
9832 12286 12290 28
9833 12291 12292 28
9834 12291 12293 28
9835 12291 12294 28
9836 12291 12295 28
9837 12296 12297 28
9838 12296 12298 28
9839 12296 12299 28
9840 12296 12300 28
9841 12301 12302 28
9842 12301 12303 28
9843 12301 12304 28
9844 12301 12305 28
9845 12306 12307 28
9846 12306 12308 28
9847 12306 12309 28
9848 12306 12310 28
9849 12311 12312 28
9850 12311 12313 28
9851 12311 12314 28
9852 12311 12315 28
9853 12316 12317 28
9854 12316 12318 28
9855 12316 12319 28
9856 12316 12320 28
9857 12321 12322 28
9858 12321 12323 28
9859 12321 12324 28
9860 12321 12325 28
9861 12326 12327 28
9862 12326 12328 28
9863 12326 12329 28
9864 12326 12330 28
9865 12331 12332 28
9866 12331 12333 28
9867 12331 12334 28
9868 12331 12335 28
9869 12336 12337 28
9870 12336 12338 28
9871 12336 12339 28
9872 12336 12340 28
9873 12341 12342 28
9874 12341 12343 28
9875 12341 12344 28
9876 12341 12345 28
9877 12346 12347 28
9878 12346 12348 28
9879 12346 12349 28
9880 12346 12350 28
9881 12351 12352 28
9882 12351 12353 28
9883 12351 12354 28
9884 12351 12355 28
9885 12356 12357 28
9886 12356 12358 28
9887 12356 12359 28
9888 12356 12360 28
9889 12361 12362 28
9890 12361 12363 28
9891 12361 12364 28
9892 12361 12365 28
9893 12366 12367 28
9894 12366 12368 28
9895 12366 12369 28
9896 12366 12370 28
9897 12371 12372 28
9898 12371 12373 28
9899 12371 12374 28
9900 12371 12375 28
9901 12376 12377 28
9902 12376 12378 28
9903 12376 12379 28
9904 12376 12380 28
9905 12381 12382 28
9906 12381 12383 28
9907 12381 12384 28
9908 12381 12385 28
9909 12386 12387 28
9910 12386 12388 28
9911 12386 12389 28
9912 12386 12390 28
9913 12391 12392 28
9914 12391 12393 28
9915 12391 12394 28
9916 12391 12395 28
9917 12396 12397 28
9918 12396 12398 28
9919 12396 12399 28
9920 12396 12400 28
9921 12401 12402 28
9922 12401 12403 28
9923 12401 12404 28
9924 12401 12405 28
9925 12406 12407 28
9926 12406 12408 28
9927 12406 12409 28
9928 12406 12410 28
9929 12411 12412 28
9930 12411 12413 28
9931 12411 12414 28
9932 12411 12415 28
9933 12416 12417 28
9934 12416 12418 28
9935 12416 12419 28
9936 12416 12420 28
9937 12421 12422 28
9938 12421 12423 28
9939 12421 12424 28
9940 12421 12425 28
9941 12426 12427 28
9942 12426 12428 28
9943 12426 12429 28
9944 12426 12430 28
9945 12431 12432 28
9946 12431 12433 28
9947 12431 12434 28
9948 12431 12435 28
9949 12436 12437 28
9950 12436 12438 28
9951 12436 12439 28
9952 12436 12440 28
9953 12441 12442 28
9954 12441 12443 28
9955 12441 12444 28
9956 12441 12445 28
9957 12446 12447 28
9958 12446 12448 28
9959 12446 12449 28
9960 12446 12450 28
9961 12451 12452 28
9962 12451 12453 28
9963 12451 12454 28
9964 12451 12455 28
9965 12456 12457 28
9966 12456 12458 28
9967 12456 12459 28
9968 12456 12460 28
9969 12461 12462 28
9970 12461 12463 28
9971 12461 12464 28
9972 12461 12465 28
9973 12466 12467 28
9974 12466 12468 28
9975 12466 12469 28
9976 12466 12470 28
9977 12471 12472 28
9978 12471 12473 28
9979 12471 12474 28
9980 12471 12475 28
9981 12476 12477 28
9982 12476 12478 28
9983 12476 12479 28
9984 12476 12480 28
9985 12481 12482 28
9986 12481 12483 28
9987 12481 12484 28
9988 12481 12485 28
9989 12486 12487 28
9990 12486 12488 28
9991 12486 12489 28
9992 12486 12490 28
9993 12491 12492 28
9994 12491 12493 28
9995 12491 12494 28
9996 12491 12495 28
9997 12496 12497 28
9998 12496 12498 28
9999 12496 12499 28
10000 12496 12500 28
10001 12501 12502 28
10002 12501 12503 28
10003 12501 12504 28
10004 12501 12505 28
10005 12506 12507 28
10006 12506 12508 28
10007 12506 12509 28
10008 12506 12510 28
10009 12511 12512 28
10010 12511 12513 28
10011 12511 12514 28
10012 12511 12515 28
10013 12516 12517 28
10014 12516 12518 28
10015 12516 12519 28
10016 12516 12520 28
10017 12521 12522 28
10018 12521 12523 28
10019 12521 12524 28
10020 12521 12525 28
10021 12526 12527 28
10022 12526 12528 28
10023 12526 12529 28
10024 12526 12530 28
10025 12531 12532 28
10026 12531 12533 28
10027 12531 12534 28
10028 12531 12535 28
10029 12536 12537 28
10030 12536 12538 28
10031 12536 12539 28
10032 12536 12540 28
10033 12541 12542 28
10034 12541 12543 28
10035 12541 12544 28
10036 12541 12545 28
10037 12546 12547 28
10038 12546 12548 28
10039 12546 12549 28
10040 12546 12550 28
10041 12551 12552 28
10042 12551 12553 28
10043 12551 12554 28
10044 12551 12555 28
10045 12556 12557 28
10046 12556 12558 28
10047 12556 12559 28
10048 12556 12560 28
10049 12561 12562 28
10050 12561 12563 28
10051 12561 12564 28
10052 12561 12565 28
10053 12566 12567 28
10054 12566 12568 28
10055 12566 12569 28
10056 12566 12570 28
10057 12571 12572 28
10058 12571 12573 28
10059 12571 12574 28
10060 12571 12575 28
10061 12576 12577 28
10062 12576 12578 28
10063 12576 12579 28
10064 12576 12580 28
10065 12581 12582 28
10066 12581 12583 28
10067 12581 12584 28
10068 12581 12585 28
10069 12586 12587 28
10070 12586 12588 28
10071 12586 12589 28
10072 12586 12590 28
10073 12591 12592 28
10074 12591 12593 28
10075 12591 12594 28
10076 12591 12595 28
10077 12596 12597 28
10078 12596 12598 28
10079 12596 12599 28
10080 12596 12600 28
10081 12601 12602 28
10082 12601 12603 28
10083 12601 12604 28
10084 12601 12605 28
10085 12606 12607 28
10086 12606 12608 28
10087 12606 12609 28
10088 12606 12610 28
10089 12611 12612 28
10090 12611 12613 28
10091 12611 12614 28
10092 12611 12615 28
10093 12616 12617 28
10094 12616 12618 28
10095 12616 12619 28
10096 12616 12620 28
10097 12621 12622 28
10098 12621 12623 28
10099 12621 12624 28
10100 12621 12625 28
10101 12626 12627 28
10102 12626 12628 28
10103 12626 12629 28
10104 12626 12630 28
10105 12631 12632 28
10106 12631 12633 28
10107 12631 12634 28
10108 12631 12635 28
10109 12636 12637 28
10110 12636 12638 28
10111 12636 12639 28
10112 12636 12640 28
10113 12641 12642 28
10114 12641 12643 28
10115 12641 12644 28
10116 12641 12645 28
10117 12646 12647 28
10118 12646 12648 28
10119 12646 12649 28
10120 12646 12650 28
10121 12651 12652 28
10122 12651 12653 28
10123 12651 12654 28
10124 12651 12655 28
10125 12656 12657 28
10126 12656 12658 28
10127 12656 12659 28
10128 12656 12660 28
10129 12661 12662 28
10130 12661 12663 28
10131 12661 12664 28
10132 12661 12665 28
10133 12666 12667 28
10134 12666 12668 28
10135 12666 12669 28
10136 12666 12670 28
10137 12671 12672 28
10138 12671 12673 28
10139 12671 12674 28
10140 12671 12675 28
10141 12676 12677 28
10142 12676 12678 28
10143 12676 12679 28
10144 12676 12680 28
10145 12681 12682 28
10146 12681 12683 28
10147 12681 12684 28
10148 12681 12685 28
10149 12686 12687 28
10150 12686 12688 28
10151 12686 12689 28
10152 12686 12690 28
10153 12691 12692 28
10154 12691 12693 28
10155 12691 12694 28
10156 12691 12695 28
10157 12696 12697 28
10158 12696 12698 28
10159 12696 12699 28
10160 12696 12700 28
10161 12701 12702 28
10162 12701 12703 28
10163 12701 12704 28
10164 12701 12705 28
10165 12706 12707 28
10166 12706 12708 28
10167 12706 12709 28
10168 12706 12710 28
10169 12711 12712 28
10170 12711 12713 28
10171 12711 12714 28
10172 12711 12715 28
10173 12716 12717 28
10174 12716 12718 28
10175 12716 12719 28
10176 12716 12720 28
10177 12721 12722 28
10178 12721 12723 28
10179 12721 12724 28
10180 12721 12725 28
10181 12726 12727 28
10182 12726 12728 28
10183 12726 12729 28
10184 12726 12730 28
10185 12731 12732 28
10186 12731 12733 28
10187 12731 12734 28
10188 12731 12735 28
10189 12736 12737 28
10190 12736 12738 28
10191 12736 12739 28
10192 12736 12740 28
10193 12741 12742 28
10194 12741 12743 28
10195 12741 12744 28
10196 12741 12745 28
10197 12746 12747 28
10198 12746 12748 28
10199 12746 12749 28
10200 12746 12750 28
10201 12751 12752 28
10202 12751 12753 28
10203 12751 12754 28
10204 12751 12755 28
10205 12756 12757 28
10206 12756 12758 28
10207 12756 12759 28
10208 12756 12760 28
10209 12761 12762 28
10210 12761 12763 28
10211 12761 12764 28
10212 12761 12765 28
10213 12766 12767 28
10214 12766 12768 28
10215 12766 12769 28
10216 12766 12770 28
10217 12771 12772 28
10218 12771 12773 28
10219 12771 12774 28
10220 12771 12775 28
10221 12776 12777 28
10222 12776 12778 28
10223 12776 12779 28
10224 12776 12780 28
10225 12781 12782 28
10226 12781 12783 28
10227 12781 12784 28
10228 12781 12785 28
10229 12786 12787 28
10230 12786 12788 28
10231 12786 12789 28
10232 12786 12790 28
10233 12791 12792 28
10234 12791 12793 28
10235 12791 12794 28
10236 12791 12795 28
10237 12796 12797 28
10238 12796 12798 28
10239 12796 12799 28
10240 12796 12800 28
10241 12801 12802 28
10242 12801 12803 28
10243 12801 12804 28
10244 12801 12805 28
10245 12806 12807 28
10246 12806 12808 28
10247 12806 12809 28
10248 12806 12810 28
10249 12811 12812 28
10250 12811 12813 28
10251 12811 12814 28
10252 12811 12815 28
10253 12816 12817 28
10254 12816 12818 28
10255 12816 12819 28
10256 12816 12820 28
10257 12821 12822 28
10258 12821 12823 28
10259 12821 12824 28
10260 12821 12825 28
10261 12826 12827 28
10262 12826 12828 28
10263 12826 12829 28
10264 12826 12830 28
10265 12831 12832 28
10266 12831 12833 28
10267 12831 12834 28
10268 12831 12835 28
10269 12836 12837 28
10270 12836 12838 28
10271 12836 12839 28
10272 12836 12840 28
10273 12841 12842 28
10274 12841 12843 28
10275 12841 12844 28
10276 12841 12845 28
10277 12846 12847 28
10278 12846 12848 28
10279 12846 12849 28
10280 12846 12850 28
10281 12851 12852 28
10282 12851 12853 28
10283 12851 12854 28
10284 12851 12855 28
10285 12856 12857 28
10286 12856 12858 28
10287 12856 12859 28
10288 12856 12860 28
10289 12861 12862 28
10290 12861 12863 28
10291 12861 12864 28
10292 12861 12865 28
10293 12866 12867 28
10294 12866 12868 28
10295 12866 12869 28
10296 12866 12870 28
10297 12871 12872 28
10298 12871 12873 28
10299 12871 12874 28
10300 12871 12875 28
10301 12876 12877 28
10302 12876 12878 28
10303 12876 12879 28
10304 12876 12880 28
10305 12881 12882 28
10306 12881 12883 28
10307 12881 12884 28
10308 12881 12885 28
10309 12886 12887 28
10310 12886 12888 28
10311 12886 12889 28
10312 12886 12890 28
10313 12891 12892 28
10314 12891 12893 28
10315 12891 12894 28
10316 12891 12895 28
10317 12896 12897 28
10318 12896 12898 28
10319 12896 12899 28
10320 12896 12900 28
10321 12901 12902 28
10322 12901 12903 28
10323 12901 12904 28
10324 12901 12905 28
10325 12906 12907 28
10326 12906 12908 28
10327 12906 12909 28
10328 12906 12910 28
10329 12911 12912 28
10330 12911 12913 28
10331 12911 12914 28
10332 12911 12915 28
10333 12916 12917 28
10334 12916 12918 28
10335 12916 12919 28
10336 12916 12920 28
10337 12921 12922 28
10338 12921 12923 28
10339 12921 12924 28
10340 12921 12925 28
10341 12926 12927 28
10342 12926 12928 28
10343 12926 12929 28
10344 12926 12930 28
10345 12931 12932 28
10346 12931 12933 28
10347 12931 12934 28
10348 12931 12935 28
10349 12936 12937 28
10350 12936 12938 28
10351 12936 12939 28
10352 12936 12940 28
10353 12941 12942 28
10354 12941 12943 28
10355 12941 12944 28
10356 12941 12945 28
10357 12946 12947 28
10358 12946 12948 28
10359 12946 12949 28
10360 12946 12950 28
10361 12951 12952 28
10362 12951 12953 28
10363 12951 12954 28
10364 12951 12955 28
10365 12956 12957 28
10366 12956 12958 28
10367 12956 12959 28
10368 12956 12960 28
10369 12961 12962 28
10370 12961 12963 28
10371 12961 12964 28
10372 12961 12965 28
10373 12966 12967 28
10374 12966 12968 28
10375 12966 12969 28
10376 12966 12970 28
10377 12971 12972 28
10378 12971 12973 28
10379 12971 12974 28
10380 12971 12975 28
10381 12976 12977 28
10382 12976 12978 28
10383 12976 12979 28
10384 12976 12980 28
10385 12981 12982 28
10386 12981 12983 28
10387 12981 12984 28
10388 12981 12985 28
10389 12986 12987 28
10390 12986 12988 28
10391 12986 12989 28
10392 12986 12990 28
10393 12991 12992 28
10394 12991 12993 28
10395 12991 12994 28
10396 12991 12995 28
10397 12996 12997 28
10398 12996 12998 28
10399 12996 12999 28
10400 12996 13000 28
10401 13001 13002 28
10402 13001 13003 28
10403 13001 13004 28
10404 13001 13005 28
10405 13006 13007 28
10406 13006 13008 28
10407 13006 13009 28
10408 13006 13010 28
10409 13011 13012 28
10410 13011 13013 28
10411 13011 13014 28
10412 13011 13015 28
10413 13016 13017 28
10414 13016 13018 28
10415 13016 13019 28
10416 13016 13020 28
10417 13021 13022 28
10418 13021 13023 28
10419 13021 13024 28
10420 13021 13025 28
10421 13026 13027 28
10422 13026 13028 28
10423 13026 13029 28
10424 13026 13030 28
10425 13031 13032 28
10426 13031 13033 28
10427 13031 13034 28
10428 13031 13035 28
10429 13036 13037 28
10430 13036 13038 28
10431 13036 13039 28
10432 13036 13040 28
10433 13041 13042 28
10434 13041 13043 28
10435 13041 13044 28
10436 13041 13045 28
10437 13046 13047 28
10438 13046 13048 28
10439 13046 13049 28
10440 13046 13050 28
10441 13051 13052 28
10442 13051 13053 28
10443 13051 13054 28
10444 13051 13055 28
10445 13056 13057 28
10446 13056 13058 28
10447 13056 13059 28
10448 13056 13060 28
10449 13061 13062 28
10450 13061 13063 28
10451 13061 13064 28
10452 13061 13065 28
10453 13066 13067 28
10454 13066 13068 28
10455 13066 13069 28
10456 13066 13070 28
10457 13071 13072 28
10458 13071 13073 28
10459 13071 13074 28
10460 13071 13075 28
10461 13076 13077 28
10462 13076 13078 28
10463 13076 13079 28
10464 13076 13080 28
10465 13081 13082 28
10466 13081 13083 28
10467 13081 13084 28
10468 13081 13085 28
10469 13086 13087 28
10470 13086 13088 28
10471 13086 13089 28
10472 13086 13090 28
10473 13091 13092 28
10474 13091 13093 28
10475 13091 13094 28
10476 13091 13095 28
10477 13096 13097 28
10478 13096 13098 28
10479 13096 13099 28
10480 13096 13100 28
10481 13101 13102 28
10482 13101 13103 28
10483 13101 13104 28
10484 13101 13105 28
10485 13106 13107 28
10486 13106 13108 28
10487 13106 13109 28
10488 13106 13110 28
10489 13111 13112 28
10490 13111 13113 28
10491 13111 13114 28
10492 13111 13115 28
10493 13116 13117 28
10494 13116 13118 28
10495 13116 13119 28
10496 13116 13120 28
10497 13121 13122 28
10498 13121 13123 28
10499 13121 13124 28
10500 13121 13125 28
10501 13126 13127 28
10502 13126 13128 28
10503 13126 13129 28
10504 13126 13130 28
10505 13131 13132 28
10506 13131 13133 28
10507 13131 13134 28
10508 13131 13135 28
10509 13136 13137 28
10510 13136 13138 28
10511 13136 13139 28
10512 13136 13140 28
10513 13141 13142 28
10514 13141 13143 28
10515 13141 13144 28
10516 13141 13145 28
10517 13146 13147 28
10518 13146 13148 28
10519 13146 13149 28
10520 13146 13150 28
10521 13151 13152 28
10522 13151 13153 28
10523 13151 13154 28
10524 13151 13155 28
10525 13156 13157 28
10526 13156 13158 28
10527 13156 13159 28
10528 13156 13160 28
10529 13161 13162 28
10530 13161 13163 28
10531 13161 13164 28
10532 13161 13165 28
10533 13166 13167 28
10534 13166 13168 28
10535 13166 13169 28
10536 13166 13170 28
10537 13171 13172 28
10538 13171 13173 28
10539 13171 13174 28
10540 13171 13175 28
10541 13176 13177 28
10542 13176 13178 28
10543 13176 13179 28
10544 13176 13180 28
10545 13181 13182 28
10546 13181 13183 28
10547 13181 13184 28
10548 13181 13185 28
10549 13186 13187 28
10550 13186 13188 28
10551 13186 13189 28
10552 13186 13190 28
10553 13191 13192 28
10554 13191 13193 28
10555 13191 13194 28
10556 13191 13195 28
10557 13196 13197 28
10558 13196 13198 28
10559 13196 13199 28
10560 13196 13200 28
10561 13201 13202 28
10562 13201 13203 28
10563 13201 13204 28
10564 13201 13205 28
10565 13206 13207 28
10566 13206 13208 28
10567 13206 13209 28
10568 13206 13210 28
10569 13211 13212 28
10570 13211 13213 28
10571 13211 13214 28
10572 13211 13215 28
10573 13216 13217 28
10574 13216 13218 28
10575 13216 13219 28
10576 13216 13220 28
10577 13221 13222 28
10578 13221 13223 28
10579 13221 13224 28
10580 13221 13225 28
10581 13226 13227 28
10582 13226 13228 28
10583 13226 13229 28
10584 13226 13230 28
10585 13231 13232 28
10586 13231 13233 28
10587 13231 13234 28
10588 13231 13235 28
10589 13236 13237 28
10590 13236 13238 28
10591 13236 13239 28
10592 13236 13240 28
10593 13241 13242 28
10594 13241 13243 28
10595 13241 13244 28
10596 13241 13245 28
10597 13246 13247 28
10598 13246 13248 28
10599 13246 13249 28
10600 13246 13250 28
10601 13251 13252 28
10602 13251 13253 28
10603 13251 13254 28
10604 13251 13255 28
10605 13256 13257 28
10606 13256 13258 28
10607 13256 13259 28
10608 13256 13260 28
10609 13261 13262 28
10610 13261 13263 28
10611 13261 13264 28
10612 13261 13265 28
10613 13266 13267 28
10614 13266 13268 28
10615 13266 13269 28
10616 13266 13270 28
10617 13271 13272 28
10618 13271 13273 28
10619 13271 13274 28
10620 13271 13275 28
10621 13276 13277 28
10622 13276 13278 28
10623 13276 13279 28
10624 13276 13280 28
10625 13281 13282 28
10626 13281 13283 28
10627 13281 13284 28
10628 13281 13285 28
10629 13286 13287 28
10630 13286 13288 28
10631 13286 13289 28
10632 13286 13290 28
10633 13291 13292 28
10634 13291 13293 28
10635 13291 13294 28
10636 13291 13295 28
10637 13296 13297 28
10638 13296 13298 28
10639 13296 13299 28
10640 13296 13300 28
10641 13301 13302 28
10642 13301 13303 28
10643 13301 13304 28
10644 13301 13305 28
10645 13306 13307 28
10646 13306 13308 28
10647 13306 13309 28
10648 13306 13310 28
10649 13311 13312 28
10650 13311 13313 28
10651 13311 13314 28
10652 13311 13315 28
10653 13316 13317 28
10654 13316 13318 28
10655 13316 13319 28
10656 13316 13320 28
10657 13321 13322 28
10658 13321 13323 28
10659 13321 13324 28
10660 13321 13325 28
10661 13326 13327 28
10662 13326 13328 28
10663 13326 13329 28
10664 13326 13330 28
10665 13331 13332 28
10666 13331 13333 28
10667 13331 13334 28
10668 13331 13335 28
10669 13336 13337 28
10670 13336 13338 28
10671 13336 13339 28
10672 13336 13340 28
10673 13341 13342 28
10674 13341 13343 28
10675 13341 13344 28
10676 13341 13345 28
10677 13346 13347 28
10678 13346 13348 28
10679 13346 13349 28
10680 13346 13350 28
10681 13351 13352 28
10682 13351 13353 28
10683 13351 13354 28
10684 13351 13355 28
10685 13356 13357 28
10686 13356 13358 28
10687 13356 13359 28
10688 13356 13360 28
10689 13361 13362 28
10690 13361 13363 28
10691 13361 13364 28
10692 13361 13365 28
10693 13366 13367 28
10694 13366 13368 28
10695 13366 13369 28
10696 13366 13370 28
10697 13371 13372 28
10698 13371 13373 28
10699 13371 13374 28
10700 13371 13375 28
10701 13376 13377 28
10702 13376 13378 28
10703 13376 13379 28
10704 13376 13380 28
10705 13381 13382 28
10706 13381 13383 28
10707 13381 13384 28
10708 13381 13385 28
10709 13386 13387 28
10710 13386 13388 28
10711 13386 13389 28
10712 13386 13390 28
10713 13391 13392 28
10714 13391 13393 28
10715 13391 13394 28
10716 13391 13395 28
10717 13396 13397 28
10718 13396 13398 28
10719 13396 13399 28
10720 13396 13400 28
10721 13401 13402 28
10722 13401 13403 28
10723 13401 13404 28
10724 13401 13405 28
10725 13406 13407 28
10726 13406 13408 28
10727 13406 13409 28
10728 13406 13410 28
10729 13411 13412 28
10730 13411 13413 28
10731 13411 13414 28
10732 13411 13415 28
10733 13416 13417 28
10734 13416 13418 28
10735 13416 13419 28
10736 13416 13420 28
10737 13421 13422 28
10738 13421 13423 28
10739 13421 13424 28
10740 13421 13425 28
10741 13426 13427 28
10742 13426 13428 28
10743 13426 13429 28
10744 13426 13430 28
10745 13431 13432 28
10746 13431 13433 28
10747 13431 13434 28
10748 13431 13435 28
10749 13436 13437 28
10750 13436 13438 28
10751 13436 13439 28
10752 13436 13440 28
10753 13441 13442 28
10754 13441 13443 28
10755 13441 13444 28
10756 13441 13445 28
10757 13446 13447 28
10758 13446 13448 28
10759 13446 13449 28
10760 13446 13450 28
10761 13451 13452 28
10762 13451 13453 28
10763 13451 13454 28
10764 13451 13455 28
10765 13456 13457 28
10766 13456 13458 28
10767 13456 13459 28
10768 13456 13460 28
10769 13461 13462 28
10770 13461 13463 28
10771 13461 13464 28
10772 13461 13465 28
10773 13466 13467 28
10774 13466 13468 28
10775 13466 13469 28
10776 13466 13470 28
10777 13471 13472 28
10778 13471 13473 28
10779 13471 13474 28
10780 13471 13475 28
10781 13476 13477 28
10782 13476 13478 28
10783 13476 13479 28
10784 13476 13480 28
10785 13481 13482 28
10786 13481 13483 28
10787 13481 13484 28
10788 13481 13485 28
10789 13486 13487 28
10790 13486 13488 28
10791 13486 13489 28
10792 13486 13490 28
10793 13491 13492 28
10794 13491 13493 28
10795 13491 13494 28
10796 13491 13495 28
10797 13496 13497 28
10798 13496 13498 28
10799 13496 13499 28
10800 13496 13500 28
10801 13501 13502 28
10802 13501 13503 28
10803 13501 13504 28
10804 13501 13505 28
10805 13506 13507 28
10806 13506 13508 28
10807 13506 13509 28
10808 13506 13510 28
10809 13511 13512 28
10810 13511 13513 28
10811 13511 13514 28
10812 13511 13515 28
10813 13516 13517 28
10814 13516 13518 28
10815 13516 13519 28
10816 13516 13520 28
10817 13521 13522 28
10818 13521 13523 28
10819 13521 13524 28
10820 13521 13525 28
10821 13526 13527 28
10822 13526 13528 28
10823 13526 13529 28
10824 13526 13530 28
10825 13531 13532 28
10826 13531 13533 28
10827 13531 13534 28
10828 13531 13535 28
10829 13536 13537 28
10830 13536 13538 28
10831 13536 13539 28
10832 13536 13540 28
10833 13541 13542 28
10834 13541 13543 28
10835 13541 13544 28
10836 13541 13545 28
10837 13546 13547 28
10838 13546 13548 28
10839 13546 13549 28
10840 13546 13550 28
10841 13551 13552 28
10842 13551 13553 28
10843 13551 13554 28
10844 13551 13555 28
10845 13556 13557 28
10846 13556 13558 28
10847 13556 13559 28
10848 13556 13560 28
10849 13561 13562 28
10850 13561 13563 28
10851 13561 13564 28
10852 13561 13565 28
10853 13566 13567 28
10854 13566 13568 28
10855 13566 13569 28
10856 13566 13570 28
10857 13571 13572 28
10858 13571 13573 28
10859 13571 13574 28
10860 13571 13575 28
10861 13576 13577 28
10862 13576 13578 28
10863 13576 13579 28
10864 13576 13580 28
10865 13581 13582 28
10866 13581 13583 28
10867 13581 13584 28
10868 13581 13585 28
10869 13586 13587 28
10870 13586 13588 28
10871 13586 13589 28
10872 13586 13590 28
10873 13591 13592 28
10874 13591 13593 28
10875 13591 13594 28
10876 13591 13595 28
10877 13596 13597 28
10878 13596 13598 28
10879 13596 13599 28
10880 13596 13600 28
10881 13601 13602 28
10882 13601 13603 28
10883 13601 13604 28
10884 13601 13605 28
10885 13606 13607 28
10886 13606 13608 28
10887 13606 13609 28
10888 13606 13610 28
10889 13611 13612 28
10890 13611 13613 28
10891 13611 13614 28
10892 13611 13615 28
10893 13616 13617 28
10894 13616 13618 28
10895 13616 13619 28
10896 13616 13620 28
10897 13621 13622 28
10898 13621 13623 28
10899 13621 13624 28
10900 13621 13625 28
10901 13626 13627 28
10902 13626 13628 28
10903 13626 13629 28
10904 13626 13630 28
10905 13631 13632 28
10906 13631 13633 28
10907 13631 13634 28
10908 13631 13635 28
10909 13636 13637 28
10910 13636 13638 28
10911 13636 13639 28
10912 13636 13640 28
10913 13641 13642 28
10914 13641 13643 28
10915 13641 13644 28
10916 13641 13645 28
10917 13646 13647 28
10918 13646 13648 28
10919 13646 13649 28
10920 13646 13650 28
10921 13651 13652 28
10922 13651 13653 28
10923 13651 13654 28
10924 13651 13655 28
10925 13656 13657 28
10926 13656 13658 28
10927 13656 13659 28
10928 13656 13660 28
10929 13661 13662 28
10930 13661 13663 28
10931 13661 13664 28
10932 13661 13665 28
10933 13666 13667 28
10934 13666 13668 28
10935 13666 13669 28
10936 13666 13670 28
10937 13671 13672 28
10938 13671 13673 28
10939 13671 13674 28
10940 13671 13675 28
10941 13676 13677 28
10942 13676 13678 28
10943 13676 13679 28
10944 13676 13680 28
10945 13681 13682 28
10946 13681 13683 28
10947 13681 13684 28
10948 13681 13685 28
10949 13686 13687 28
10950 13686 13688 28
10951 13686 13689 28
10952 13686 13690 28
10953 13691 13692 28
10954 13691 13693 28
10955 13691 13694 28
10956 13691 13695 28
10957 13696 13697 28
10958 13696 13698 28
10959 13696 13699 28
10960 13696 13700 28
10961 13701 13702 28
10962 13701 13703 28
10963 13701 13704 28
10964 13701 13705 28
10965 13706 13707 28
10966 13706 13708 28
10967 13706 13709 28
10968 13706 13710 28
10969 13711 13712 28
10970 13711 13713 28
10971 13711 13714 28
10972 13711 13715 28
10973 13716 13717 28
10974 13716 13718 28
10975 13716 13719 28
10976 13716 13720 28
10977 13721 13722 28
10978 13721 13723 28
10979 13721 13724 28
10980 13721 13725 28
10981 13726 13727 28
10982 13726 13728 28
10983 13726 13729 28
10984 13726 13730 28
10985 13731 13732 28
10986 13731 13733 28
10987 13731 13734 28
10988 13731 13735 28
10989 13736 13737 28
10990 13736 13738 28
10991 13736 13739 28
10992 13736 13740 28
10993 13741 13742 28
10994 13741 13743 28
10995 13741 13744 28
10996 13741 13745 28
10997 13746 13747 28
10998 13746 13748 28
10999 13746 13749 28
11000 13746 13750 28
11001 13751 13752 28
11002 13751 13753 28
11003 13751 13754 28
11004 13751 13755 28
11005 13756 13757 28
11006 13756 13758 28
11007 13756 13759 28
11008 13756 13760 28
11009 13761 13762 28
11010 13761 13763 28
11011 13761 13764 28
11012 13761 13765 28
11013 13766 13767 28
11014 13766 13768 28
11015 13766 13769 28
11016 13766 13770 28
11017 13771 13772 28
11018 13771 13773 28
11019 13771 13774 28
11020 13771 13775 28
11021 13776 13777 28
11022 13776 13778 28
11023 13776 13779 28
11024 13776 13780 28
11025 13781 13782 28
11026 13781 13783 28
11027 13781 13784 28
11028 13781 13785 28
11029 13786 13787 28
11030 13786 13788 28
11031 13786 13789 28
11032 13786 13790 28
11033 13791 13792 28
11034 13791 13793 28
11035 13791 13794 28
11036 13791 13795 28
11037 13796 13797 28
11038 13796 13798 28
11039 13796 13799 28
11040 13796 13800 28
11041 13801 13802 28
11042 13801 13803 28
11043 13801 13804 28
11044 13801 13805 28
11045 13806 13807 28
11046 13806 13808 28
11047 13806 13809 28
11048 13806 13810 28
11049 13811 13812 28
11050 13811 13813 28
11051 13811 13814 28
11052 13811 13815 28
11053 13816 13817 28
11054 13816 13818 28
11055 13816 13819 28
11056 13816 13820 28
11057 13821 13822 28
11058 13821 13823 28
11059 13821 13824 28
11060 13821 13825 28
11061 13826 13827 28
11062 13826 13828 28
11063 13826 13829 28
11064 13826 13830 28
11065 13831 13832 28
11066 13831 13833 28
11067 13831 13834 28
11068 13831 13835 28
11069 13836 13837 28
11070 13836 13838 28
11071 13836 13839 28
11072 13836 13840 28
11073 13841 13842 28
11074 13841 13843 28
11075 13841 13844 28
11076 13841 13845 28
11077 13846 13847 28
11078 13846 13848 28
11079 13846 13849 28
11080 13846 13850 28
11081 13851 13852 28
11082 13851 13853 28
11083 13851 13854 28
11084 13851 13855 28
11085 13856 13857 28
11086 13856 13858 28
11087 13856 13859 28
11088 13856 13860 28
11089 13861 13862 28
11090 13861 13863 28
11091 13861 13864 28
11092 13861 13865 28
11093 13866 13867 28
11094 13866 13868 28
11095 13866 13869 28
11096 13866 13870 28
11097 13871 13872 28
11098 13871 13873 28
11099 13871 13874 28
11100 13871 13875 28
11101 13876 13877 28
11102 13876 13878 28
11103 13876 13879 28
11104 13876 13880 28
11105 13881 13882 28
11106 13881 13883 28
11107 13881 13884 28
11108 13881 13885 28
11109 13886 13887 28
11110 13886 13888 28
11111 13886 13889 28
11112 13886 13890 28
11113 13891 13892 28
11114 13891 13893 28
11115 13891 13894 28
11116 13891 13895 28
11117 13896 13897 28
11118 13896 13898 28
11119 13896 13899 28
11120 13896 13900 28
11121 13901 13902 28
11122 13901 13903 28
11123 13901 13904 28
11124 13901 13905 28
11125 13906 13907 28
11126 13906 13908 28
11127 13906 13909 28
11128 13906 13910 28
11129 13911 13912 28
11130 13911 13913 28
11131 13911 13914 28
11132 13911 13915 28
11133 13916 13917 28
11134 13916 13918 28
11135 13916 13919 28
11136 13916 13920 28
11137 13921 13922 28
11138 13921 13923 28
11139 13921 13924 28
11140 13921 13925 28
11141 13926 13927 28
11142 13926 13928 28
11143 13926 13929 28
11144 13926 13930 28
11145 13931 13932 28
11146 13931 13933 28
11147 13931 13934 28
11148 13931 13935 28
11149 13936 13937 28
11150 13936 13938 28
11151 13936 13939 28
11152 13936 13940 28
11153 13941 13942 28
11154 13941 13943 28
11155 13941 13944 28
11156 13941 13945 28
11157 13946 13947 28
11158 13946 13948 28
11159 13946 13949 28
11160 13946 13950 28
11161 13951 13952 28
11162 13951 13953 28
11163 13951 13954 28
11164 13951 13955 28
11165 13956 13957 28
11166 13956 13958 28
11167 13956 13959 28
11168 13956 13960 28
11169 13961 13962 28
11170 13961 13963 28
11171 13961 13964 28
11172 13961 13965 28
11173 13966 13967 28
11174 13966 13968 28
11175 13966 13969 28
11176 13966 13970 28
11177 13971 13972 28
11178 13971 13973 28
11179 13971 13974 28
11180 13971 13975 28
11181 13976 13977 28
11182 13976 13978 28
11183 13976 13979 28
11184 13976 13980 28
11185 13981 13982 28
11186 13981 13983 28
11187 13981 13984 28
11188 13981 13985 28
11189 13986 13987 28
11190 13986 13988 28
11191 13986 13989 28
11192 13986 13990 28
11193 13991 13992 28
11194 13991 13993 28
11195 13991 13994 28
11196 13991 13995 28
11197 13996 13997 28
11198 13996 13998 28
11199 13996 13999 28
11200 13996 14000 28
11201 14001 14002 28
11202 14001 14003 28
11203 14001 14004 28
11204 14001 14005 28
11205 14006 14007 28
11206 14006 14008 28
11207 14006 14009 28
11208 14006 14010 28
11209 14011 14012 28
11210 14011 14013 28
11211 14011 14014 28
11212 14011 14015 28
11213 14016 14017 28
11214 14016 14018 28
11215 14016 14019 28
11216 14016 14020 28
11217 14021 14022 28
11218 14021 14023 28
11219 14021 14024 28
11220 14021 14025 28
11221 14026 14027 28
11222 14026 14028 28
11223 14026 14029 28
11224 14026 14030 28
11225 14031 14032 28
11226 14031 14033 28
11227 14031 14034 28
11228 14031 14035 28
11229 14036 14037 28
11230 14036 14038 28
11231 14036 14039 28
11232 14036 14040 28
11233 14041 14042 28
11234 14041 14043 28
11235 14041 14044 28
11236 14041 14045 28
11237 14046 14047 28
11238 14046 14048 28
11239 14046 14049 28
11240 14046 14050 28
11241 14051 14052 28
11242 14051 14053 28
11243 14051 14054 28
11244 14051 14055 28
11245 14056 14057 28
11246 14056 14058 28
11247 14056 14059 28
11248 14056 14060 28
11249 14061 14062 28
11250 14061 14063 28
11251 14061 14064 28
11252 14061 14065 28
11253 14066 14067 28
11254 14066 14068 28
11255 14066 14069 28
11256 14066 14070 28
11257 14071 14072 28
11258 14071 14073 28
11259 14071 14074 28
11260 14071 14075 28
11261 14076 14077 28
11262 14076 14078 28
11263 14076 14079 28
11264 14076 14080 28
11265 14081 14082 28
11266 14081 14083 28
11267 14081 14084 28
11268 14081 14085 28
11269 14086 14087 28
11270 14086 14088 28
11271 14086 14089 28
11272 14086 14090 28
11273 14091 14092 28
11274 14091 14093 28
11275 14091 14094 28
11276 14091 14095 28
11277 14096 14097 28
11278 14096 14098 28
11279 14096 14099 28
11280 14096 14100 28
11281 14101 14102 28
11282 14101 14103 28
11283 14101 14104 28
11284 14101 14105 28
11285 14106 14107 28
11286 14106 14108 28
11287 14106 14109 28
11288 14106 14110 28
11289 14111 14112 28
11290 14111 14113 28
11291 14111 14114 28
11292 14111 14115 28
11293 14116 14117 28
11294 14116 14118 28
11295 14116 14119 28
11296 14116 14120 28
11297 14121 14122 28
11298 14121 14123 28
11299 14121 14124 28
11300 14121 14125 28
11301 14126 14127 28
11302 14126 14128 28
11303 14126 14129 28
11304 14126 14130 28
11305 14131 14132 28
11306 14131 14133 28
11307 14131 14134 28
11308 14131 14135 28
11309 14136 14137 28
11310 14136 14138 28
11311 14136 14139 28
11312 14136 14140 28
11313 14141 14142 28
11314 14141 14143 28
11315 14141 14144 28
11316 14141 14145 28
11317 14146 14147 28
11318 14146 14148 28
11319 14146 14149 28
11320 14146 14150 28
11321 14151 14152 28
11322 14151 14153 28
11323 14151 14154 28
11324 14151 14155 28
11325 14156 14157 28
11326 14156 14158 28
11327 14156 14159 28
11328 14156 14160 28
11329 14161 14162 28
11330 14161 14163 28
11331 14161 14164 28
11332 14161 14165 28
11333 14166 14167 28
11334 14166 14168 28
11335 14166 14169 28
11336 14166 14170 28
11337 14171 14172 28
11338 14171 14173 28
11339 14171 14174 28
11340 14171 14175 28
11341 14176 14177 28
11342 14176 14178 28
11343 14176 14179 28
11344 14176 14180 28
11345 14181 14182 28
11346 14181 14183 28
11347 14181 14184 28
11348 14181 14185 28
11349 14186 14187 28
11350 14186 14188 28
11351 14186 14189 28
11352 14186 14190 28
11353 14191 14192 28
11354 14191 14193 28
11355 14191 14194 28
11356 14191 14195 28
11357 14196 14197 28
11358 14196 14198 28
11359 14196 14199 28
11360 14196 14200 28
11361 14201 14202 28
11362 14201 14203 28
11363 14201 14204 28
11364 14201 14205 28
11365 14206 14207 28
11366 14206 14208 28
11367 14206 14209 28
11368 14206 14210 28
11369 14211 14212 28
11370 14211 14213 28
11371 14211 14214 28
11372 14211 14215 28
11373 14216 14217 28
11374 14216 14218 28
11375 14216 14219 28
11376 14216 14220 28
11377 14221 14222 28
11378 14221 14223 28
11379 14221 14224 28
11380 14221 14225 28
11381 14226 14227 28
11382 14226 14228 28
11383 14226 14229 28
11384 14226 14230 28
11385 14231 14232 28
11386 14231 14233 28
11387 14231 14234 28
11388 14231 14235 28
11389 14236 14237 28
11390 14236 14238 28
11391 14236 14239 28
11392 14236 14240 28
11393 14241 14242 28
11394 14241 14243 28
11395 14241 14244 28
11396 14241 14245 28
11397 14246 14247 28
11398 14246 14248 28
11399 14246 14249 28
11400 14246 14250 28
11401 14251 14252 28
11402 14251 14253 28
11403 14251 14254 28
11404 14251 14255 28
11405 14256 14257 28
11406 14256 14258 28
11407 14256 14259 28
11408 14256 14260 28
11409 14261 14262 28
11410 14261 14263 28
11411 14261 14264 28
11412 14261 14265 28
11413 14266 14267 28
11414 14266 14268 28
11415 14266 14269 28
11416 14266 14270 28
11417 14271 14272 28
11418 14271 14273 28
11419 14271 14274 28
11420 14271 14275 28
11421 14276 14277 28
11422 14276 14278 28
11423 14276 14279 28
11424 14276 14280 28
11425 14281 14282 28
11426 14281 14283 28
11427 14281 14284 28
11428 14281 14285 28
11429 14286 14287 28
11430 14286 14288 28
11431 14286 14289 28
11432 14286 14290 28
11433 14291 14292 28
11434 14291 14293 28
11435 14291 14294 28
11436 14291 14295 28
11437 14296 14297 28
11438 14296 14298 28
11439 14296 14299 28
11440 14296 14300 28
11441 14301 14302 28
11442 14301 14303 28
11443 14301 14304 28
11444 14301 14305 28
11445 14306 14307 28
11446 14306 14308 28
11447 14306 14309 28
11448 14306 14310 28
11449 14311 14312 28
11450 14311 14313 28
11451 14311 14314 28
11452 14311 14315 28
11453 14316 14317 28
11454 14316 14318 28
11455 14316 14319 28
11456 14316 14320 28
11457 14321 14322 28
11458 14321 14323 28
11459 14321 14324 28
11460 14321 14325 28
11461 14326 14327 28
11462 14326 14328 28
11463 14326 14329 28
11464 14326 14330 28
11465 14331 14332 28
11466 14331 14333 28
11467 14331 14334 28
11468 14331 14335 28
11469 14336 14337 28
11470 14336 14338 28
11471 14336 14339 28
11472 14336 14340 28
11473 14341 14342 28
11474 14341 14343 28
11475 14341 14344 28
11476 14341 14345 28
11477 14346 14347 28
11478 14346 14348 28
11479 14346 14349 28
11480 14346 14350 28
11481 14351 14352 28
11482 14351 14353 28
11483 14351 14354 28
11484 14351 14355 28
11485 14356 14357 28
11486 14356 14358 28
11487 14356 14359 28
11488 14356 14360 28
11489 14361 14362 28
11490 14361 14363 28
11491 14361 14364 28
11492 14361 14365 28
11493 14366 14367 28
11494 14366 14368 28
11495 14366 14369 28
11496 14366 14370 28
11497 14371 14372 28
11498 14371 14373 28
11499 14371 14374 28
11500 14371 14375 28
11501 14376 14377 28
11502 14376 14378 28
11503 14376 14379 28
11504 14376 14380 28
11505 14381 14382 28
11506 14381 14383 28
11507 14381 14384 28
11508 14381 14385 28
11509 14386 14387 28
11510 14386 14388 28
11511 14386 14389 28
11512 14386 14390 28
11513 14391 14392 28
11514 14391 14393 28
11515 14391 14394 28
11516 14391 14395 28
11517 14396 14397 28
11518 14396 14398 28
11519 14396 14399 28
11520 14396 14400 28
11521 14401 14402 28
11522 14401 14403 28
11523 14401 14404 28
11524 14401 14405 28
11525 14406 14407 28
11526 14406 14408 28
11527 14406 14409 28
11528 14406 14410 28
11529 14411 14412 28
11530 14411 14413 28
11531 14411 14414 28
11532 14411 14415 28
11533 14416 14417 28
11534 14416 14418 28
11535 14416 14419 28
11536 14416 14420 28
11537 14421 14422 28
11538 14421 14423 28
11539 14421 14424 28
11540 14421 14425 28
11541 14426 14427 28
11542 14426 14428 28
11543 14426 14429 28
11544 14426 14430 28
11545 14431 14432 28
11546 14431 14433 28
11547 14431 14434 28
11548 14431 14435 28
11549 14436 14437 28
11550 14436 14438 28
11551 14436 14439 28
11552 14436 14440 28
11553 14441 14442 28
11554 14441 14443 28
11555 14441 14444 28
11556 14441 14445 28
11557 14446 14447 28
11558 14446 14448 28
11559 14446 14449 28
11560 14446 14450 28
11561 14451 14452 28
11562 14451 14453 28
11563 14451 14454 28
11564 14451 14455 28
11565 14456 14457 28
11566 14456 14458 28
11567 14456 14459 28
11568 14456 14460 28
11569 14461 14462 28
11570 14461 14463 28
11571 14461 14464 28
11572 14461 14465 28
11573 14466 14467 28
11574 14466 14468 28
11575 14466 14469 28
11576 14466 14470 28
11577 14471 14472 28
11578 14471 14473 28
11579 14471 14474 28
11580 14471 14475 28
11581 14476 14477 28
11582 14476 14478 28
11583 14476 14479 28
11584 14476 14480 28
11585 14481 14482 28
11586 14481 14483 28
11587 14481 14484 28
11588 14481 14485 28
11589 14486 14487 28
11590 14486 14488 28
11591 14486 14489 28
11592 14486 14490 28
11593 14491 14492 28
11594 14491 14493 28
11595 14491 14494 28
11596 14491 14495 28
11597 14496 14497 28
11598 14496 14498 28
11599 14496 14499 28
11600 14496 14500 28
11601 14501 14502 28
11602 14501 14503 28
11603 14501 14504 28
11604 14501 14505 28
11605 14506 14507 28
11606 14506 14508 28
11607 14506 14509 28
11608 14506 14510 28
11609 14511 14512 28
11610 14511 14513 28
11611 14511 14514 28
11612 14511 14515 28
11613 14516 14517 28
11614 14516 14518 28
11615 14516 14519 28
11616 14516 14520 28
11617 14521 14522 28
11618 14521 14523 28
11619 14521 14524 28
11620 14521 14525 28
11621 14526 14527 28
11622 14526 14528 28
11623 14526 14529 28
11624 14526 14530 28
11625 14531 14532 28
11626 14531 14533 28
11627 14531 14534 28
11628 14531 14535 28
11629 14536 14537 28
11630 14536 14538 28
11631 14536 14539 28
11632 14536 14540 28
11633 14541 14542 28
11634 14541 14543 28
11635 14541 14544 28
11636 14541 14545 28
11637 14546 14547 28
11638 14546 14548 28
11639 14546 14549 28
11640 14546 14550 28
11641 14551 14552 28
11642 14551 14553 28
11643 14551 14554 28
11644 14551 14555 28
11645 14556 14557 28
11646 14556 14558 28
11647 14556 14559 28
11648 14556 14560 28
11649 14561 14562 28
11650 14561 14563 28
11651 14561 14564 28
11652 14561 14565 28
11653 14566 14567 28
11654 14566 14568 28
11655 14566 14569 28
11656 14566 14570 28
11657 14571 14572 28
11658 14571 14573 28
11659 14571 14574 28
11660 14571 14575 28
11661 14576 14577 28
11662 14576 14578 28
11663 14576 14579 28
11664 14576 14580 28
11665 14581 14582 28
11666 14581 14583 28
11667 14581 14584 28
11668 14581 14585 28
11669 14586 14587 28
11670 14586 14588 28
11671 14586 14589 28
11672 14586 14590 28
11673 14591 14592 28
11674 14591 14593 28
11675 14591 14594 28
11676 14591 14595 28
11677 14596 14597 28
11678 14596 14598 28
11679 14596 14599 28
11680 14596 14600 28
11681 14601 14602 28
11682 14601 14603 28
11683 14601 14604 28
11684 14601 14605 28
11685 14606 14607 28
11686 14606 14608 28
11687 14606 14609 28
11688 14606 14610 28
11689 14611 14612 28
11690 14611 14613 28
11691 14611 14614 28
11692 14611 14615 28
11693 14616 14617 28
11694 14616 14618 28
11695 14616 14619 28
11696 14616 14620 28
11697 14621 14622 28
11698 14621 14623 28
11699 14621 14624 28
11700 14621 14625 28
11701 14626 14627 28
11702 14626 14628 28
11703 14626 14629 28
11704 14626 14630 28
11705 14631 14632 28
11706 14631 14633 28
11707 14631 14634 28
11708 14631 14635 28
11709 14636 14637 28
11710 14636 14638 28
11711 14636 14639 28
11712 14636 14640 28
11713 14641 14642 28
11714 14641 14643 28
11715 14641 14644 28
11716 14641 14645 28
11717 14646 14647 28
11718 14646 14648 28
11719 14646 14649 28
11720 14646 14650 28
11721 14651 14652 28
11722 14651 14653 28
11723 14651 14654 28
11724 14651 14655 28
11725 14656 14657 28
11726 14656 14658 28
11727 14656 14659 28
11728 14656 14660 28
11729 14661 14662 28
11730 14661 14663 28
11731 14661 14664 28
11732 14661 14665 28
11733 14666 14667 28
11734 14666 14668 28
11735 14666 14669 28
11736 14666 14670 28
11737 14671 14672 28
11738 14671 14673 28
11739 14671 14674 28
11740 14671 14675 28
11741 14676 14677 28
11742 14676 14678 28
11743 14676 14679 28
11744 14676 14680 28
11745 14681 14682 28
11746 14681 14683 28
11747 14681 14684 28
11748 14681 14685 28
11749 14686 14687 28
11750 14686 14688 28
11751 14686 14689 28
11752 14686 14690 28
11753 14691 14692 28
11754 14691 14693 28
11755 14691 14694 28
11756 14691 14695 28
11757 14696 14697 28
11758 14696 14698 28
11759 14696 14699 28
11760 14696 14700 28
11761 14701 14702 28
11762 14701 14703 28
11763 14701 14704 28
11764 14701 14705 28
11765 14706 14707 28
11766 14706 14708 28
11767 14706 14709 28
11768 14706 14710 28
11769 14711 14712 28
11770 14711 14713 28
11771 14711 14714 28
11772 14711 14715 28
11773 14716 14717 28
11774 14716 14718 28
11775 14716 14719 28
11776 14716 14720 28
11777 14721 14722 28
11778 14721 14723 28
11779 14721 14724 28
11780 14721 14725 28
11781 14726 14727 28
11782 14726 14728 28
11783 14726 14729 28
11784 14726 14730 28
11785 14731 14732 28
11786 14731 14733 28
11787 14731 14734 28
11788 14731 14735 28
11789 14736 14737 28
11790 14736 14738 28
11791 14736 14739 28
11792 14736 14740 28
11793 14741 14742 28
11794 14741 14743 28
11795 14741 14744 28
11796 14741 14745 28
11797 14746 14747 28
11798 14746 14748 28
11799 14746 14749 28
11800 14746 14750 28
11801 14751 14752 28
11802 14751 14753 28
11803 14751 14754 28
11804 14751 14755 28
11805 14756 14757 28
11806 14756 14758 28
11807 14756 14759 28
11808 14756 14760 28
11809 14761 14762 28
11810 14761 14763 28
11811 14761 14764 28
11812 14761 14765 28
11813 14766 14767 28
11814 14766 14768 28
11815 14766 14769 28
11816 14766 14770 28
11817 14771 14772 28
11818 14771 14773 28
11819 14771 14774 28
11820 14771 14775 28
11821 14776 14777 28
11822 14776 14778 28
11823 14776 14779 28
11824 14776 14780 28
11825 14781 14782 28
11826 14781 14783 28
11827 14781 14784 28
11828 14781 14785 28
11829 14786 14787 28
11830 14786 14788 28
11831 14786 14789 28
11832 14786 14790 28
11833 14791 14792 28
11834 14791 14793 28
11835 14791 14794 28
11836 14791 14795 28
11837 14796 14797 28
11838 14796 14798 28
11839 14796 14799 28
11840 14796 14800 28
11841 14801 14802 28
11842 14801 14803 28
11843 14801 14804 28
11844 14801 14805 28
11845 14806 14807 28
11846 14806 14808 28
11847 14806 14809 28
11848 14806 14810 28
11849 14811 14812 28
11850 14811 14813 28
11851 14811 14814 28
11852 14811 14815 28
11853 14816 14817 28
11854 14816 14818 28
11855 14816 14819 28
11856 14816 14820 28
11857 14821 14822 28
11858 14821 14823 28
11859 14821 14824 28
11860 14821 14825 28
11861 14826 14827 28
11862 14826 14828 28
11863 14826 14829 28
11864 14826 14830 28
11865 14831 14832 28
11866 14831 14833 28
11867 14831 14834 28
11868 14831 14835 28
11869 14836 14837 28
11870 14836 14838 28
11871 14836 14839 28
11872 14836 14840 28
11873 14841 14842 28
11874 14841 14843 28
11875 14841 14844 28
11876 14841 14845 28
11877 14846 14847 28
11878 14846 14848 28
11879 14846 14849 28
11880 14846 14850 28
11881 14851 14852 28
11882 14851 14853 28
11883 14851 14854 28
11884 14851 14855 28
11885 14856 14857 28
11886 14856 14858 28
11887 14856 14859 28
11888 14856 14860 28
11889 14861 14862 28
11890 14861 14863 28
11891 14861 14864 28
11892 14861 14865 28
11893 14866 14867 28
11894 14866 14868 28
11895 14866 14869 28
11896 14866 14870 28
11897 14871 14872 28
11898 14871 14873 28
11899 14871 14874 28
11900 14871 14875 28
11901 14876 14877 28
11902 14876 14878 28
11903 14876 14879 28
11904 14876 14880 28
11905 14881 14882 28
11906 14881 14883 28
11907 14881 14884 28
11908 14881 14885 28
11909 14886 14887 28
11910 14886 14888 28
11911 14886 14889 28
11912 14886 14890 28
11913 14891 14892 28
11914 14891 14893 28
11915 14891 14894 28
11916 14891 14895 28
11917 14896 14897 28
11918 14896 14898 28
11919 14896 14899 28
11920 14896 14900 28
11921 14901 14902 28
11922 14901 14903 28
11923 14901 14904 28
11924 14901 14905 28
11925 14906 14907 28
11926 14906 14908 28
11927 14906 14909 28
11928 14906 14910 28
11929 14911 14912 28
11930 14911 14913 28
11931 14911 14914 28
11932 14911 14915 28
11933 14916 14917 28
11934 14916 14918 28
11935 14916 14919 28
11936 14916 14920 28
11937 14921 14922 28
11938 14921 14923 28
11939 14921 14924 28
11940 14921 14925 28
11941 14926 14927 28
11942 14926 14928 28
11943 14926 14929 28
11944 14926 14930 28
11945 14931 14932 28
11946 14931 14933 28
11947 14931 14934 28
11948 14931 14935 28
11949 14936 14937 28
11950 14936 14938 28
11951 14936 14939 28
11952 14936 14940 28
11953 14941 14942 28
11954 14941 14943 28
11955 14941 14944 28
11956 14941 14945 28
11957 14946 14947 28
11958 14946 14948 28
11959 14946 14949 28
11960 14946 14950 28
11961 14951 14952 28
11962 14951 14953 28
11963 14951 14954 28
11964 14951 14955 28
11965 14956 14957 28
11966 14956 14958 28
11967 14956 14959 28
11968 14956 14960 28
11969 14961 14962 28
11970 14961 14963 28
11971 14961 14964 28
11972 14961 14965 28
11973 14966 14967 28
11974 14966 14968 28
11975 14966 14969 28
11976 14966 14970 28
11977 14971 14972 28
11978 14971 14973 28
11979 14971 14974 28
11980 14971 14975 28
11981 14976 14977 28
11982 14976 14978 28
11983 14976 14979 28
11984 14976 14980 28
11985 14981 14982 28
11986 14981 14983 28
11987 14981 14984 28
11988 14981 14985 28
11989 14986 14987 28
11990 14986 14988 28
11991 14986 14989 28
11992 14986 14990 28
11993 14991 14992 28
11994 14991 14993 28
11995 14991 14994 28
11996 14991 14995 28
11997 14996 14997 28
11998 14996 14998 28
11999 14996 14999 28
12000 14996 15000 28
12001 15001 15002 28
12002 15001 15003 28
12003 15001 15004 28
12004 15001 15005 28
12005 15006 15007 28
12006 15006 15008 28
12007 15006 15009 28
12008 15006 15010 28
12009 15011 15012 28
12010 15011 15013 28
12011 15011 15014 28
12012 15011 15015 28
12013 15016 15017 28
12014 15016 15018 28
12015 15016 15019 28
12016 15016 15020 28
12017 15021 15022 28
12018 15021 15023 28
12019 15021 15024 28
12020 15021 15025 28
12021 15026 15027 28
12022 15026 15028 28
12023 15026 15029 28
12024 15026 15030 28
12025 15031 15032 28
12026 15031 15033 28
12027 15031 15034 28
12028 15031 15035 28
12029 15036 15037 28
12030 15036 15038 28
12031 15036 15039 28
12032 15036 15040 28
12033 15041 15042 28
12034 15041 15043 28
12035 15041 15044 28
12036 15041 15045 28
12037 15046 15047 28
12038 15046 15048 28
12039 15046 15049 28
12040 15046 15050 28
12041 15051 15052 28
12042 15051 15053 28
12043 15051 15054 28
12044 15051 15055 28
12045 15056 15057 28
12046 15056 15058 28
12047 15056 15059 28
12048 15056 15060 28
12049 15061 15062 28
12050 15061 15063 28
12051 15061 15064 28
12052 15061 15065 28
12053 15066 15067 28
12054 15066 15068 28
12055 15066 15069 28
12056 15066 15070 28
12057 15071 15072 28
12058 15071 15073 28
12059 15071 15074 28
12060 15071 15075 28
12061 15076 15077 28
12062 15076 15078 28
12063 15076 15079 28
12064 15076 15080 28
12065 15081 15082 28
12066 15081 15083 28
12067 15081 15084 28
12068 15081 15085 28
12069 15086 15087 28
12070 15086 15088 28
12071 15086 15089 28
12072 15086 15090 28
12073 15091 15092 28
12074 15091 15093 28
12075 15091 15094 28
12076 15091 15095 28
12077 15096 15097 28
12078 15096 15098 28
12079 15096 15099 28
12080 15096 15100 28
12081 15101 15102 28
12082 15101 15103 28
12083 15101 15104 28
12084 15101 15105 28
12085 15106 15107 28
12086 15106 15108 28
12087 15106 15109 28
12088 15106 15110 28
12089 15111 15112 28
12090 15111 15113 28
12091 15111 15114 28
12092 15111 15115 28
12093 15116 15117 28
12094 15116 15118 28
12095 15116 15119 28
12096 15116 15120 28
12097 15121 15122 28
12098 15121 15123 28
12099 15121 15124 28
12100 15121 15125 28
12101 15126 15127 28
12102 15126 15128 28
12103 15126 15129 28
12104 15126 15130 28
12105 15131 15132 28
12106 15131 15133 28
12107 15131 15134 28
12108 15131 15135 28
12109 15136 15137 28
12110 15136 15138 28
12111 15136 15139 28
12112 15136 15140 28
12113 15141 15142 28
12114 15141 15143 28
12115 15141 15144 28
12116 15141 15145 28
12117 15146 15147 28
12118 15146 15148 28
12119 15146 15149 28
12120 15146 15150 28
12121 15151 15152 28
12122 15151 15153 28
12123 15151 15154 28
12124 15151 15155 28
12125 15156 15157 28
12126 15156 15158 28
12127 15156 15159 28
12128 15156 15160 28
12129 15161 15162 28
12130 15161 15163 28
12131 15161 15164 28
12132 15161 15165 28
12133 15166 15167 28
12134 15166 15168 28
12135 15166 15169 28
12136 15166 15170 28
12137 15171 15172 28
12138 15171 15173 28
12139 15171 15174 28
12140 15171 15175 28
12141 15176 15177 28
12142 15176 15178 28
12143 15176 15179 28
12144 15176 15180 28
12145 15181 15182 28
12146 15181 15183 28
12147 15181 15184 28
12148 15181 15185 28
12149 15186 15187 28
12150 15186 15188 28
12151 15186 15189 28
12152 15186 15190 28
12153 15191 15192 28
12154 15191 15193 28
12155 15191 15194 28
12156 15191 15195 28
12157 15196 15197 28
12158 15196 15198 28
12159 15196 15199 28
12160 15196 15200 28
12161 15201 15202 28
12162 15201 15203 28
12163 15201 15204 28
12164 15201 15205 28
12165 15206 15207 28
12166 15206 15208 28
12167 15206 15209 28
12168 15206 15210 28
12169 15211 15212 28
12170 15211 15213 28
12171 15211 15214 28
12172 15211 15215 28
12173 15216 15217 28
12174 15216 15218 28
12175 15216 15219 28
12176 15216 15220 28
12177 15221 15222 28
12178 15221 15223 28
12179 15221 15224 28
12180 15221 15225 28
12181 15226 15227 28
12182 15226 15228 28
12183 15226 15229 28
12184 15226 15230 28
12185 15231 15232 28
12186 15231 15233 28
12187 15231 15234 28
12188 15231 15235 28
12189 15236 15237 28
12190 15236 15238 28
12191 15236 15239 28
12192 15236 15240 28
12193 15241 15242 28
12194 15241 15243 28
12195 15241 15244 28
12196 15241 15245 28
12197 15246 15247 28
12198 15246 15248 28
12199 15246 15249 28
12200 15246 15250 28
12201 15251 15252 28
12202 15251 15253 28
12203 15251 15254 28
12204 15251 15255 28
12205 15256 15257 28
12206 15256 15258 28
12207 15256 15259 28
12208 15256 15260 28
12209 15261 15262 28
12210 15261 15263 28
12211 15261 15264 28
12212 15261 15265 28
12213 15266 15267 28
12214 15266 15268 28
12215 15266 15269 28
12216 15266 15270 28
12217 15271 15272 28
12218 15271 15273 28
12219 15271 15274 28
12220 15271 15275 28
12221 15276 15277 28
12222 15276 15278 28
12223 15276 15279 28
12224 15276 15280 28
12225 15281 15282 28
12226 15281 15283 28
12227 15281 15284 28
12228 15281 15285 28
12229 15286 15287 28
12230 15286 15288 28
12231 15286 15289 28
12232 15286 15290 28
12233 15291 15292 28
12234 15291 15293 28
12235 15291 15294 28
12236 15291 15295 28
12237 15296 15297 28
12238 15296 15298 28
12239 15296 15299 28
12240 15296 15300 28
12241 15301 15302 28
12242 15301 15303 28
12243 15301 15304 28
12244 15301 15305 28
12245 15306 15307 28
12246 15306 15308 28
12247 15306 15309 28
12248 15306 15310 28
12249 15311 15312 28
12250 15311 15313 28
12251 15311 15314 28
12252 15311 15315 28
12253 15316 15317 28
12254 15316 15318 28
12255 15316 15319 28
12256 15316 15320 28
12257 15321 15322 28
12258 15321 15323 28
12259 15321 15324 28
12260 15321 15325 28
12261 15326 15327 28
12262 15326 15328 28
12263 15326 15329 28
12264 15326 15330 28
12265 15331 15332 28
12266 15331 15333 28
12267 15331 15334 28
12268 15331 15335 28
12269 15336 15337 28
12270 15336 15338 28
12271 15336 15339 28
12272 15336 15340 28
12273 15341 15342 28
12274 15341 15343 28
12275 15341 15344 28
12276 15341 15345 28
12277 15346 15347 28
12278 15346 15348 28
12279 15346 15349 28
12280 15346 15350 28
12281 15351 15352 28
12282 15351 15353 28
12283 15351 15354 28
12284 15351 15355 28
12285 15356 15357 28
12286 15356 15358 28
12287 15356 15359 28
12288 15356 15360 28
12289 15361 15362 28
12290 15361 15363 28
12291 15361 15364 28
12292 15361 15365 28
12293 15366 15367 28
12294 15366 15368 28
12295 15366 15369 28
12296 15366 15370 28
12297 15371 15372 28
12298 15371 15373 28
12299 15371 15374 28
12300 15371 15375 28
12301 15376 15377 28
12302 15376 15378 28
12303 15376 15379 28
12304 15376 15380 28
12305 15381 15382 28
12306 15381 15383 28
12307 15381 15384 28
12308 15381 15385 28
12309 15386 15387 28
12310 15386 15388 28
12311 15386 15389 28
12312 15386 15390 28
12313 15391 15392 28
12314 15391 15393 28
12315 15391 15394 28
12316 15391 15395 28
12317 15396 15397 28
12318 15396 15398 28
12319 15396 15399 28
12320 15396 15400 28
12321 15401 15402 28
12322 15401 15403 28
12323 15401 15404 28
12324 15401 15405 28
12325 15406 15407 28
12326 15406 15408 28
12327 15406 15409 28
12328 15406 15410 28
12329 15411 15412 28
12330 15411 15413 28
12331 15411 15414 28
12332 15411 15415 28
12333 15416 15417 28
12334 15416 15418 28
12335 15416 15419 28
12336 15416 15420 28
12337 15421 15422 28
12338 15421 15423 28
12339 15421 15424 28
12340 15421 15425 28
12341 15426 15427 28
12342 15426 15428 28
12343 15426 15429 28
12344 15426 15430 28
12345 15431 15432 28
12346 15431 15433 28
12347 15431 15434 28
12348 15431 15435 28
12349 15436 15437 28
12350 15436 15438 28
12351 15436 15439 28
12352 15436 15440 28
12353 15441 15442 28
12354 15441 15443 28
12355 15441 15444 28
12356 15441 15445 28
12357 15446 15447 28
12358 15446 15448 28
12359 15446 15449 28
12360 15446 15450 28
12361 15451 15452 28
12362 15451 15453 28
12363 15451 15454 28
12364 15451 15455 28
12365 15456 15457 28
12366 15456 15458 28
12367 15456 15459 28
12368 15456 15460 28
12369 15461 15462 28
12370 15461 15463 28
12371 15461 15464 28
12372 15461 15465 28
12373 15466 15467 28
12374 15466 15468 28
12375 15466 15469 28
12376 15466 15470 28
12377 15471 15472 28
12378 15471 15473 28
12379 15471 15474 28
12380 15471 15475 28
12381 15476 15477 28
12382 15476 15478 28
12383 15476 15479 28
12384 15476 15480 28
12385 15481 15482 28
12386 15481 15483 28
12387 15481 15484 28
12388 15481 15485 28
12389 15486 15487 28
12390 15486 15488 28
12391 15486 15489 28
12392 15486 15490 28
12393 15491 15492 28
12394 15491 15493 28
12395 15491 15494 28
12396 15491 15495 28
12397 15496 15497 28
12398 15496 15498 28
12399 15496 15499 28
12400 15496 15500 28
12401 15501 15502 28
12402 15501 15503 28
12403 15501 15504 28
12404 15501 15505 28
12405 15506 15507 28
12406 15506 15508 28
12407 15506 15509 28
12408 15506 15510 28
12409 15511 15512 28
12410 15511 15513 28
12411 15511 15514 28
12412 15511 15515 28
12413 15516 15517 28
12414 15516 15518 28
12415 15516 15519 28
12416 15516 15520 28
12417 15521 15522 28
12418 15521 15523 28
12419 15521 15524 28
12420 15521 15525 28
12421 15526 15527 28
12422 15526 15528 28
12423 15526 15529 28
12424 15526 15530 28
12425 15531 15532 28
12426 15531 15533 28
12427 15531 15534 28
12428 15531 15535 28
12429 15536 15537 28
12430 15536 15538 28
12431 15536 15539 28
12432 15536 15540 28
12433 15541 15542 28
12434 15541 15543 28
12435 15541 15544 28
12436 15541 15545 28
12437 15546 15547 28
12438 15546 15548 28
12439 15546 15549 28
12440 15546 15550 28
12441 15551 15552 28
12442 15551 15553 28
12443 15551 15554 28
12444 15551 15555 28
12445 15556 15557 28
12446 15556 15558 28
12447 15556 15559 28
12448 15556 15560 28
12449 15561 15562 28
12450 15561 15563 28
12451 15561 15564 28
12452 15561 15565 28
12453 15566 15567 28
12454 15566 15568 28
12455 15566 15569 28
12456 15566 15570 28
12457 15571 15572 28
12458 15571 15573 28
12459 15571 15574 28
12460 15571 15575 28
12461 15576 15577 28
12462 15576 15578 28
12463 15576 15579 28
12464 15576 15580 28
12465 15581 15582 28
12466 15581 15583 28
12467 15581 15584 28
12468 15581 15585 28
12469 15586 15587 28
12470 15586 15588 28
12471 15586 15589 28
12472 15586 15590 28
12473 15591 15592 28
12474 15591 15593 28
12475 15591 15594 28
12476 15591 15595 28
12477 15596 15597 28
12478 15596 15598 28
12479 15596 15599 28
12480 15596 15600 28
12481 15601 15602 28
12482 15601 15603 28
12483 15601 15604 28
12484 15601 15605 28
12485 15606 15607 28
12486 15606 15608 28
12487 15606 15609 28
12488 15606 15610 28
12489 15611 15612 28
12490 15611 15613 28
12491 15611 15614 28
12492 15611 15615 28
12493 15616 15617 28
12494 15616 15618 28
12495 15616 15619 28
12496 15616 15620 28
12497 15621 15622 28
12498 15621 15623 28
12499 15621 15624 28
12500 15621 15625 28
12501 15626 15627 28
12502 15626 15628 28
12503 15626 15629 28
12504 15626 15630 28
12505 15631 15632 28
12506 15631 15633 28
12507 15631 15634 28
12508 15631 15635 28
12509 15636 15637 28
12510 15636 15638 28
12511 15636 15639 28
12512 15636 15640 28
12513 15641 15642 28
12514 15641 15643 28
12515 15641 15644 28
12516 15641 15645 28
12517 15646 15647 28
12518 15646 15648 28
12519 15646 15649 28
12520 15646 15650 28
12521 15651 15652 28
12522 15651 15653 28
12523 15651 15654 28
12524 15651 15655 28
12525 15656 15657 28
12526 15656 15658 28
12527 15656 15659 28
12528 15656 15660 28
12529 15661 15662 28
12530 15661 15663 28
12531 15661 15664 28
12532 15661 15665 28
12533 15666 15667 28
12534 15666 15668 28
12535 15666 15669 28
12536 15666 15670 28
12537 15671 15672 28
12538 15671 15673 28
12539 15671 15674 28
12540 15671 15675 28
12541 15676 15677 28
12542 15676 15678 28
12543 15676 15679 28
12544 15676 15680 28
12545 15681 15682 28
12546 15681 15683 28
12547 15681 15684 28
12548 15681 15685 28
12549 15686 15687 28
12550 15686 15688 28
12551 15686 15689 28
12552 15686 15690 28
12553 15691 15692 28
12554 15691 15693 28
12555 15691 15694 28
12556 15691 15695 28
12557 15696 15697 28
12558 15696 15698 28
12559 15696 15699 28
12560 15696 15700 28
12561 15701 15702 28
12562 15701 15703 28
12563 15701 15704 28
12564 15701 15705 28
12565 15706 15707 28
12566 15706 15708 28
12567 15706 15709 28
12568 15706 15710 28
12569 15711 15712 28
12570 15711 15713 28
12571 15711 15714 28
12572 15711 15715 28
12573 15716 15717 28
12574 15716 15718 28
12575 15716 15719 28
12576 15716 15720 28
12577 15721 15722 28
12578 15721 15723 28
12579 15721 15724 28
12580 15721 15725 28
12581 15726 15727 28
12582 15726 15728 28
12583 15726 15729 28
12584 15726 15730 28
12585 15731 15732 28
12586 15731 15733 28
12587 15731 15734 28
12588 15731 15735 28
12589 15736 15737 28
12590 15736 15738 28
12591 15736 15739 28
12592 15736 15740 28
12593 15741 15742 28
12594 15741 15743 28
12595 15741 15744 28
12596 15741 15745 28
12597 15746 15747 28
12598 15746 15748 28
12599 15746 15749 28
12600 15746 15750 28
12601 15751 15752 28
12602 15751 15753 28
12603 15751 15754 28
12604 15751 15755 28
12605 15756 15757 28
12606 15756 15758 28
12607 15756 15759 28
12608 15756 15760 28
12609 15761 15762 28
12610 15761 15763 28
12611 15761 15764 28
12612 15761 15765 28
12613 15766 15767 28
12614 15766 15768 28
12615 15766 15769 28
12616 15766 15770 28
12617 15771 15772 28
12618 15771 15773 28
12619 15771 15774 28
12620 15771 15775 28
12621 15776 15777 28
12622 15776 15778 28
12623 15776 15779 28
12624 15776 15780 28
12625 15781 15782 28
12626 15781 15783 28
12627 15781 15784 28
12628 15781 15785 28
12629 15786 15787 28
12630 15786 15788 28
12631 15786 15789 28
12632 15786 15790 28
12633 15791 15792 28
12634 15791 15793 28
12635 15791 15794 28
12636 15791 15795 28
12637 15796 15797 28
12638 15796 15798 28
12639 15796 15799 28
12640 15796 15800 28
12641 15801 15802 28
12642 15801 15803 28
12643 15801 15804 28
12644 15801 15805 28
12645 15806 15807 28
12646 15806 15808 28
12647 15806 15809 28
12648 15806 15810 28
12649 15811 15812 28
12650 15811 15813 28
12651 15811 15814 28
12652 15811 15815 28
12653 15816 15817 28
12654 15816 15818 28
12655 15816 15819 28
12656 15816 15820 28
12657 15821 15822 28
12658 15821 15823 28
12659 15821 15824 28
12660 15821 15825 28
12661 15826 15827 28
12662 15826 15828 28
12663 15826 15829 28
12664 15826 15830 28
12665 15831 15832 28
12666 15831 15833 28
12667 15831 15834 28
12668 15831 15835 28
12669 15836 15837 28
12670 15836 15838 28
12671 15836 15839 28
12672 15836 15840 28
12673 15841 15842 28
12674 15841 15843 28
12675 15841 15844 28
12676 15841 15845 28
12677 15846 15847 28
12678 15846 15848 28
12679 15846 15849 28
12680 15846 15850 28
12681 15851 15852 28
12682 15851 15853 28
12683 15851 15854 28
12684 15851 15855 28
12685 15856 15857 28
12686 15856 15858 28
12687 15856 15859 28
12688 15856 15860 28
12689 15861 15862 28
12690 15861 15863 28
12691 15861 15864 28
12692 15861 15865 28
12693 15866 15867 28
12694 15866 15868 28
12695 15866 15869 28
12696 15866 15870 28
12697 15871 15872 28
12698 15871 15873 28
12699 15871 15874 28
12700 15871 15875 28
12701 15876 15877 28
12702 15876 15878 28
12703 15876 15879 28
12704 15876 15880 28
12705 15881 15882 28
12706 15881 15883 28
12707 15881 15884 28
12708 15881 15885 28
12709 15886 15887 28
12710 15886 15888 28
12711 15886 15889 28
12712 15886 15890 28
12713 15891 15892 28
12714 15891 15893 28
12715 15891 15894 28
12716 15891 15895 28
12717 15896 15897 28
12718 15896 15898 28
12719 15896 15899 28
12720 15896 15900 28
12721 15901 15902 28
12722 15901 15903 28
12723 15901 15904 28
12724 15901 15905 28
12725 15906 15907 28
12726 15906 15908 28
12727 15906 15909 28
12728 15906 15910 28
12729 15911 15912 28
12730 15911 15913 28
12731 15911 15914 28
12732 15911 15915 28
12733 15916 15917 28
12734 15916 15918 28
12735 15916 15919 28
12736 15916 15920 28
12737 15921 15922 28
12738 15921 15923 28
12739 15921 15924 28
12740 15921 15925 28
12741 15926 15927 28
12742 15926 15928 28
12743 15926 15929 28
12744 15926 15930 28
12745 15931 15932 28
12746 15931 15933 28
12747 15931 15934 28
12748 15931 15935 28
12749 15936 15937 28
12750 15936 15938 28
12751 15936 15939 28
12752 15936 15940 28
12753 15941 15942 28
12754 15941 15943 28
12755 15941 15944 28
12756 15941 15945 28
12757 15946 15947 28
12758 15946 15948 28
12759 15946 15949 28
12760 15946 15950 28
12761 15951 15952 28
12762 15951 15953 28
12763 15951 15954 28
12764 15951 15955 28
12765 15956 15957 28
12766 15956 15958 28
12767 15956 15959 28
12768 15956 15960 28
12769 15961 15962 28
12770 15961 15963 28
12771 15961 15964 28
12772 15961 15965 28
12773 15966 15967 28
12774 15966 15968 28
12775 15966 15969 28
12776 15966 15970 28
12777 15971 15972 28
12778 15971 15973 28
12779 15971 15974 28
12780 15971 15975 28
12781 15976 15977 28
12782 15976 15978 28
12783 15976 15979 28
12784 15976 15980 28
12785 15981 15982 28
12786 15981 15983 28
12787 15981 15984 28
12788 15981 15985 28
12789 15986 15987 28
12790 15986 15988 28
12791 15986 15989 28
12792 15986 15990 28
12793 15991 15992 28
12794 15991 15993 28
12795 15991 15994 28
12796 15991 15995 28
12797 15996 15997 28
12798 15996 15998 28
12799 15996 15999 28
12800 15996 16000 28
12801 16001 16002 28
12802 16001 16003 28
12803 16001 16004 28
12804 16001 16005 28
12805 16006 16007 28
12806 16006 16008 28
12807 16006 16009 28
12808 16006 16010 28
12809 16011 16012 28
12810 16011 16013 28
12811 16011 16014 28
12812 16011 16015 28
12813 16016 16017 28
12814 16016 16018 28
12815 16016 16019 28
12816 16016 16020 28
12817 16021 16022 28
12818 16021 16023 28
12819 16021 16024 28
12820 16021 16025 28
12821 16026 16027 28
12822 16026 16028 28
12823 16026 16029 28
12824 16026 16030 28
12825 16031 16032 28
12826 16031 16033 28
12827 16031 16034 28
12828 16031 16035 28
12829 16036 16037 28
12830 16036 16038 28
12831 16036 16039 28
12832 16036 16040 28
12833 16041 16042 28
12834 16041 16043 28
12835 16041 16044 28
12836 16041 16045 28
12837 16046 16047 28
12838 16046 16048 28
12839 16046 16049 28
12840 16046 16050 28
12841 16051 16052 28
12842 16051 16053 28
12843 16051 16054 28
12844 16051 16055 28
12845 16056 16057 28
12846 16056 16058 28
12847 16056 16059 28
12848 16056 16060 28
12849 16061 16062 28
12850 16061 16063 28
12851 16061 16064 28
12852 16061 16065 28
12853 16066 16067 28
12854 16066 16068 28
12855 16066 16069 28
12856 16066 16070 28
12857 16071 16072 28
12858 16071 16073 28
12859 16071 16074 28
12860 16071 16075 28
12861 16076 16077 28
12862 16076 16078 28
12863 16076 16079 28
12864 16076 16080 28
12865 16081 16082 28
12866 16081 16083 28
12867 16081 16084 28
12868 16081 16085 28
12869 16086 16087 28
12870 16086 16088 28
12871 16086 16089 28
12872 16086 16090 28
12873 16091 16092 28
12874 16091 16093 28
12875 16091 16094 28
12876 16091 16095 28
12877 16096 16097 28
12878 16096 16098 28
12879 16096 16099 28
12880 16096 16100 28
12881 16101 16102 28
12882 16101 16103 28
12883 16101 16104 28
12884 16101 16105 28
12885 16106 16107 28
12886 16106 16108 28
12887 16106 16109 28
12888 16106 16110 28
12889 16111 16112 28
12890 16111 16113 28
12891 16111 16114 28
12892 16111 16115 28
12893 16116 16117 28
12894 16116 16118 28
12895 16116 16119 28
12896 16116 16120 28
12897 16121 16122 28
12898 16121 16123 28
12899 16121 16124 28
12900 16121 16125 28
12901 16126 16127 28
12902 16126 16128 28
12903 16126 16129 28
12904 16126 16130 28
12905 16131 16132 28
12906 16131 16133 28
12907 16131 16134 28
12908 16131 16135 28
12909 16136 16137 28
12910 16136 16138 28
12911 16136 16139 28
12912 16136 16140 28
12913 16141 16142 28
12914 16141 16143 28
12915 16141 16144 28
12916 16141 16145 28
12917 16146 16147 28
12918 16146 16148 28
12919 16146 16149 28
12920 16146 16150 28
12921 16151 16152 28
12922 16151 16153 28
12923 16151 16154 28
12924 16151 16155 28
12925 16156 16157 28
12926 16156 16158 28
12927 16156 16159 28
12928 16156 16160 28
12929 16161 16162 28
12930 16161 16163 28
12931 16161 16164 28
12932 16161 16165 28
12933 16166 16167 28
12934 16166 16168 28
12935 16166 16169 28
12936 16166 16170 28
12937 16171 16172 28
12938 16171 16173 28
12939 16171 16174 28
12940 16171 16175 28
12941 16176 16177 28
12942 16176 16178 28
12943 16176 16179 28
12944 16176 16180 28
12945 16181 16182 28
12946 16181 16183 28
12947 16181 16184 28
12948 16181 16185 28
12949 16186 16187 28
12950 16186 16188 28
12951 16186 16189 28
12952 16186 16190 28
12953 16191 16192 28
12954 16191 16193 28
12955 16191 16194 28
12956 16191 16195 28
12957 16196 16197 28
12958 16196 16198 28
12959 16196 16199 28
12960 16196 16200 28
12961 16201 16202 28
12962 16201 16203 28
12963 16201 16204 28
12964 16201 16205 28
12965 16206 16207 28
12966 16206 16208 28
12967 16206 16209 28
12968 16206 16210 28
12969 16211 16212 28
12970 16211 16213 28
12971 16211 16214 28
12972 16211 16215 28
12973 16216 16217 28
12974 16216 16218 28
12975 16216 16219 28
12976 16216 16220 28
12977 16221 16222 28
12978 16221 16223 28
12979 16221 16224 28
12980 16221 16225 28
12981 16226 16227 28
12982 16226 16228 28
12983 16226 16229 28
12984 16226 16230 28
12985 16231 16232 28
12986 16231 16233 28
12987 16231 16234 28
12988 16231 16235 28
12989 16236 16237 28
12990 16236 16238 28
12991 16236 16239 28
12992 16236 16240 28
12993 16241 16242 28
12994 16241 16243 28
12995 16241 16244 28
12996 16241 16245 28
12997 16246 16247 28
12998 16246 16248 28
12999 16246 16249 28
13000 16246 16250 28
13001 16251 16252 28
13002 16251 16253 28
13003 16251 16254 28
13004 16251 16255 28
13005 16256 16257 28
13006 16256 16258 28
13007 16256 16259 28
13008 16256 16260 28
13009 16261 16262 28
13010 16261 16263 28
13011 16261 16264 28
13012 16261 16265 28
13013 16266 16267 28
13014 16266 16268 28
13015 16266 16269 28
13016 16266 16270 28
13017 16271 16272 28
13018 16271 16273 28
13019 16271 16274 28
13020 16271 16275 28
13021 16276 16277 28
13022 16276 16278 28
13023 16276 16279 28
13024 16276 16280 28
13025 16281 16282 28
13026 16281 16283 28
13027 16281 16284 28
13028 16281 16285 28
13029 16286 16287 28
13030 16286 16288 28
13031 16286 16289 28
13032 16286 16290 28
13033 16291 16292 28
13034 16291 16293 28
13035 16291 16294 28
13036 16291 16295 28
13037 16296 16297 28
13038 16296 16298 28
13039 16296 16299 28
13040 16296 16300 28
13041 16301 16302 28
13042 16301 16303 28
13043 16301 16304 28
13044 16301 16305 28
13045 16306 16307 28
13046 16306 16308 28
13047 16306 16309 28
13048 16306 16310 28
13049 16311 16312 28
13050 16311 16313 28
13051 16311 16314 28
13052 16311 16315 28
13053 16316 16317 28
13054 16316 16318 28
13055 16316 16319 28
13056 16316 16320 28
13057 16321 16322 28
13058 16321 16323 28
13059 16321 16324 28
13060 16321 16325 28
13061 16326 16327 28
13062 16326 16328 28
13063 16326 16329 28
13064 16326 16330 28
13065 16331 16332 28
13066 16331 16333 28
13067 16331 16334 28
13068 16331 16335 28
13069 16336 16337 28
13070 16336 16338 28
13071 16336 16339 28
13072 16336 16340 28
13073 16341 16342 28
13074 16341 16343 28
13075 16341 16344 28
13076 16341 16345 28
13077 16346 16347 28
13078 16346 16348 28
13079 16346 16349 28
13080 16346 16350 28
13081 16351 16352 28
13082 16351 16353 28
13083 16351 16354 28
13084 16351 16355 28
13085 16356 16357 28
13086 16356 16358 28
13087 16356 16359 28
13088 16356 16360 28
13089 16361 16362 28
13090 16361 16363 28
13091 16361 16364 28
13092 16361 16365 28
13093 16366 16367 28
13094 16366 16368 28
13095 16366 16369 28
13096 16366 16370 28
13097 16371 16372 28
13098 16371 16373 28
13099 16371 16374 28
13100 16371 16375 28
13101 16376 16377 28
13102 16376 16378 28
13103 16376 16379 28
13104 16376 16380 28
13105 16381 16382 28
13106 16381 16383 28
13107 16381 16384 28
13108 16381 16385 28
13109 16386 16387 28
13110 16386 16388 28
13111 16386 16389 28
13112 16386 16390 28
13113 16391 16392 28
13114 16391 16393 28
13115 16391 16394 28
13116 16391 16395 28
13117 16396 16397 28
13118 16396 16398 28
13119 16396 16399 28
13120 16396 16400 28
13121 16401 16402 28
13122 16401 16403 28
13123 16401 16404 28
13124 16401 16405 28
13125 16406 16407 28
13126 16406 16408 28
13127 16406 16409 28
13128 16406 16410 28
13129 16411 16412 28
13130 16411 16413 28
13131 16411 16414 28
13132 16411 16415 28
13133 16416 16417 28
13134 16416 16418 28
13135 16416 16419 28
13136 16416 16420 28
13137 16421 16422 28
13138 16421 16423 28
13139 16421 16424 28
13140 16421 16425 28
13141 16426 16427 28
13142 16426 16428 28
13143 16426 16429 28
13144 16426 16430 28
13145 16431 16432 28
13146 16431 16433 28
13147 16431 16434 28
13148 16431 16435 28
13149 16436 16437 28
13150 16436 16438 28
13151 16436 16439 28
13152 16436 16440 28
13153 16441 16442 28
13154 16441 16443 28
13155 16441 16444 28
13156 16441 16445 28
13157 16446 16447 28
13158 16446 16448 28
13159 16446 16449 28
13160 16446 16450 28
13161 16451 16452 28
13162 16451 16453 28
13163 16451 16454 28
13164 16451 16455 28
13165 16456 16457 28
13166 16456 16458 28
13167 16456 16459 28
13168 16456 16460 28
13169 16461 16462 28
13170 16461 16463 28
13171 16461 16464 28
13172 16461 16465 28
13173 16466 16467 28
13174 16466 16468 28
13175 16466 16469 28
13176 16466 16470 28
13177 16471 16472 28
13178 16471 16473 28
13179 16471 16474 28
13180 16471 16475 28
13181 16476 16477 28
13182 16476 16478 28
13183 16476 16479 28
13184 16476 16480 28
13185 16481 16482 28
13186 16481 16483 28
13187 16481 16484 28
13188 16481 16485 28
13189 16486 16487 28
13190 16486 16488 28
13191 16486 16489 28
13192 16486 16490 28
13193 16491 16492 28
13194 16491 16493 28
13195 16491 16494 28
13196 16491 16495 28
13197 16496 16497 28
13198 16496 16498 28
13199 16496 16499 28
13200 16496 16500 28
13201 16501 16502 28
13202 16501 16503 28
13203 16501 16504 28
13204 16501 16505 28
13205 16506 16507 28
13206 16506 16508 28
13207 16506 16509 28
13208 16506 16510 28
13209 16511 16512 28
13210 16511 16513 28
13211 16511 16514 28
13212 16511 16515 28
13213 16516 16517 28
13214 16516 16518 28
13215 16516 16519 28
13216 16516 16520 28
13217 16521 16522 28
13218 16521 16523 28
13219 16521 16524 28
13220 16521 16525 28
13221 16526 16527 28
13222 16526 16528 28
13223 16526 16529 28
13224 16526 16530 28
13225 16531 16532 28
13226 16531 16533 28
13227 16531 16534 28
13228 16531 16535 28
13229 16536 16537 28
13230 16536 16538 28
13231 16536 16539 28
13232 16536 16540 28
13233 16541 16542 28
13234 16541 16543 28
13235 16541 16544 28
13236 16541 16545 28
13237 16546 16547 28
13238 16546 16548 28
13239 16546 16549 28
13240 16546 16550 28
13241 16551 16552 28
13242 16551 16553 28
13243 16551 16554 28
13244 16551 16555 28
13245 16556 16557 28
13246 16556 16558 28
13247 16556 16559 28
13248 16556 16560 28
13249 16561 16562 28
13250 16561 16563 28
13251 16561 16564 28
13252 16561 16565 28
13253 16566 16567 28
13254 16566 16568 28
13255 16566 16569 28
13256 16566 16570 28
13257 16571 16572 28
13258 16571 16573 28
13259 16571 16574 28
13260 16571 16575 28
13261 16576 16577 28
13262 16576 16578 28
13263 16576 16579 28
13264 16576 16580 28
13265 16581 16582 28
13266 16581 16583 28
13267 16581 16584 28
13268 16581 16585 28
13269 16586 16587 28
13270 16586 16588 28
13271 16586 16589 28
13272 16586 16590 28
13273 16591 16592 28
13274 16591 16593 28
13275 16591 16594 28
13276 16591 16595 28
13277 16596 16597 28
13278 16596 16598 28
13279 16596 16599 28
13280 16596 16600 28
13281 16601 16602 28
13282 16601 16603 28
13283 16601 16604 28
13284 16601 16605 28
13285 16606 16607 28
13286 16606 16608 28
13287 16606 16609 28
13288 16606 16610 28
13289 16611 16612 28
13290 16611 16613 28
13291 16611 16614 28
13292 16611 16615 28
13293 16616 16617 28
13294 16616 16618 28
13295 16616 16619 28
13296 16616 16620 28
13297 16621 16622 28
13298 16621 16623 28
13299 16621 16624 28
13300 16621 16625 28
13301 16626 16627 28
13302 16626 16628 28
13303 16626 16629 28
13304 16626 16630 28
13305 16631 16632 28
13306 16631 16633 28
13307 16631 16634 28
13308 16631 16635 28
13309 16636 16637 28
13310 16636 16638 28
13311 16636 16639 28
13312 16636 16640 28
13313 16641 16642 28
13314 16641 16643 28
13315 16641 16644 28
13316 16641 16645 28
13317 16646 16647 28
13318 16646 16648 28
13319 16646 16649 28
13320 16646 16650 28
13321 16651 16652 28
13322 16651 16653 28
13323 16651 16654 28
13324 16651 16655 28
13325 16656 16657 28
13326 16656 16658 28
13327 16656 16659 28
13328 16656 16660 28
13329 16661 16662 28
13330 16661 16663 28
13331 16661 16664 28
13332 16661 16665 28
13333 16666 16667 28
13334 16666 16668 28
13335 16666 16669 28
13336 16666 16670 28
13337 16671 16672 28
13338 16671 16673 28
13339 16671 16674 28
13340 16671 16675 28
13341 16676 16677 28
13342 16676 16678 28
13343 16676 16679 28
13344 16676 16680 28
13345 16681 16682 28
13346 16681 16683 28
13347 16681 16684 28
13348 16681 16685 28
13349 16686 16687 28
13350 16686 16688 28
13351 16686 16689 28
13352 16686 16690 28
13353 16691 16692 28
13354 16691 16693 28
13355 16691 16694 28
13356 16691 16695 28
13357 16696 16697 28
13358 16696 16698 28
13359 16696 16699 28
13360 16696 16700 28
13361 16701 16702 28
13362 16701 16703 28
13363 16701 16704 28
13364 16701 16705 28
13365 16706 16707 28
13366 16706 16708 28
13367 16706 16709 28
13368 16706 16710 28
13369 16711 16712 28
13370 16711 16713 28
13371 16711 16714 28
13372 16711 16715 28
13373 16716 16717 28
13374 16716 16718 28
13375 16716 16719 28
13376 16716 16720 28
13377 16721 16722 28
13378 16721 16723 28
13379 16721 16724 28
13380 16721 16725 28
13381 16726 16727 28
13382 16726 16728 28
13383 16726 16729 28
13384 16726 16730 28
13385 16731 16732 28
13386 16731 16733 28
13387 16731 16734 28
13388 16731 16735 28
13389 16736 16737 28
13390 16736 16738 28
13391 16736 16739 28
13392 16736 16740 28
13393 16741 16742 28
13394 16741 16743 28
13395 16741 16744 28
13396 16741 16745 28
13397 16746 16747 28
13398 16746 16748 28
13399 16746 16749 28
13400 16746 16750 28
13401 16751 16752 28
13402 16751 16753 28
13403 16751 16754 28
13404 16751 16755 28
13405 16756 16757 28
13406 16756 16758 28
13407 16756 16759 28
13408 16756 16760 28
13409 16761 16762 28
13410 16761 16763 28
13411 16761 16764 28
13412 16761 16765 28
13413 16766 16767 28
13414 16766 16768 28
13415 16766 16769 28
13416 16766 16770 28
13417 16771 16772 28
13418 16771 16773 28
13419 16771 16774 28
13420 16771 16775 28
13421 16776 16777 28
13422 16776 16778 28
13423 16776 16779 28
13424 16776 16780 28
13425 16781 16782 28
13426 16781 16783 28
13427 16781 16784 28
13428 16781 16785 28
13429 16786 16787 28
13430 16786 16788 28
13431 16786 16789 28
13432 16786 16790 28
13433 16791 16792 28
13434 16791 16793 28
13435 16791 16794 28
13436 16791 16795 28
13437 16796 16797 28
13438 16796 16798 28
13439 16796 16799 28
13440 16796 16800 28
13441 16801 16802 28
13442 16801 16803 28
13443 16801 16804 28
13444 16801 16805 28
13445 16806 16807 28
13446 16806 16808 28
13447 16806 16809 28
13448 16806 16810 28
13449 16811 16812 28
13450 16811 16813 28
13451 16811 16814 28
13452 16811 16815 28
13453 16816 16817 28
13454 16816 16818 28
13455 16816 16819 28
13456 16816 16820 28
13457 16821 16822 28
13458 16821 16823 28
13459 16821 16824 28
13460 16821 16825 28
13461 16826 16827 28
13462 16826 16828 28
13463 16826 16829 28
13464 16826 16830 28
13465 16831 16832 28
13466 16831 16833 28
13467 16831 16834 28
13468 16831 16835 28
13469 16836 16837 28
13470 16836 16838 28
13471 16836 16839 28
13472 16836 16840 28
13473 16841 16842 28
13474 16841 16843 28
13475 16841 16844 28
13476 16841 16845 28
13477 16846 16847 28
13478 16846 16848 28
13479 16846 16849 28
13480 16846 16850 28
13481 16851 16852 28
13482 16851 16853 28
13483 16851 16854 28
13484 16851 16855 28
13485 16856 16857 28
13486 16856 16858 28
13487 16856 16859 28
13488 16856 16860 28
13489 16861 16862 28
13490 16861 16863 28
13491 16861 16864 28
13492 16861 16865 28
13493 16866 16867 28
13494 16866 16868 28
13495 16866 16869 28
13496 16866 16870 28
13497 16871 16872 28
13498 16871 16873 28
13499 16871 16874 28
13500 16871 16875 28
13501 16876 16877 28
13502 16876 16878 28
13503 16876 16879 28
13504 16876 16880 28
13505 16881 16882 28
13506 16881 16883 28
13507 16881 16884 28
13508 16881 16885 28
13509 16886 16887 28
13510 16886 16888 28
13511 16886 16889 28
13512 16886 16890 28
13513 16891 16892 28
13514 16891 16893 28
13515 16891 16894 28
13516 16891 16895 28
13517 16896 16897 28
13518 16896 16898 28
13519 16896 16899 28
13520 16896 16900 28
13521 16901 16902 28
13522 16901 16903 28
13523 16901 16904 28
13524 16901 16905 28
13525 16906 16907 28
13526 16906 16908 28
13527 16906 16909 28
13528 16906 16910 28
13529 16911 16912 28
13530 16911 16913 28
13531 16911 16914 28
13532 16911 16915 28
13533 16916 16917 28
13534 16916 16918 28
13535 16916 16919 28
13536 16916 16920 28
13537 16921 16922 28
13538 16921 16923 28
13539 16921 16924 28
13540 16921 16925 28
13541 16926 16927 28
13542 16926 16928 28
13543 16926 16929 28
13544 16926 16930 28
13545 16931 16932 28
13546 16931 16933 28
13547 16931 16934 28
13548 16931 16935 28
13549 16936 16937 28
13550 16936 16938 28
13551 16936 16939 28
13552 16936 16940 28
13553 16941 16942 28
13554 16941 16943 28
13555 16941 16944 28
13556 16941 16945 28
13557 16946 16947 28
13558 16946 16948 28
13559 16946 16949 28
13560 16946 16950 28
13561 16951 16952 28
13562 16951 16953 28
13563 16951 16954 28
13564 16951 16955 28
13565 16956 16957 28
13566 16956 16958 28
13567 16956 16959 28
13568 16956 16960 28
13569 16961 16962 28
13570 16961 16963 28
13571 16961 16964 28
13572 16961 16965 28
13573 16966 16967 28
13574 16966 16968 28
13575 16966 16969 28
13576 16966 16970 28
13577 16971 16972 28
13578 16971 16973 28
13579 16971 16974 28
13580 16971 16975 28
13581 16976 16977 28
13582 16976 16978 28
13583 16976 16979 28
13584 16976 16980 28
13585 16981 16982 28
13586 16981 16983 28
13587 16981 16984 28
13588 16981 16985 28
13589 16986 16987 28
13590 16986 16988 28
13591 16986 16989 28
13592 16986 16990 28
13593 16991 16992 28
13594 16991 16993 28
13595 16991 16994 28
13596 16991 16995 28
13597 16996 16997 28
13598 16996 16998 28
13599 16996 16999 28
13600 16996 17000 28
13601 17001 17002 28
13602 17001 17003 28
13603 17001 17004 28
13604 17001 17005 28
13605 17006 17007 28
13606 17006 17008 28
13607 17006 17009 28
13608 17006 17010 28
13609 17011 17012 28
13610 17011 17013 28
13611 17011 17014 28
13612 17011 17015 28
13613 17016 17017 28
13614 17016 17018 28
13615 17016 17019 28
13616 17016 17020 28
13617 17021 17022 28
13618 17021 17023 28
13619 17021 17024 28
13620 17021 17025 28
13621 17026 17027 28
13622 17026 17028 28
13623 17026 17029 28
13624 17026 17030 28
13625 17031 17032 28
13626 17031 17033 28
13627 17031 17034 28
13628 17031 17035 28
13629 17036 17037 28
13630 17036 17038 28
13631 17036 17039 28
13632 17036 17040 28
13633 17041 17042 28
13634 17041 17043 28
13635 17041 17044 28
13636 17041 17045 28
13637 17046 17047 28
13638 17046 17048 28
13639 17046 17049 28
13640 17046 17050 28
13641 17051 17052 28
13642 17051 17053 28
13643 17051 17054 28
13644 17051 17055 28
13645 17056 17057 28
13646 17056 17058 28
13647 17056 17059 28
13648 17056 17060 28
13649 17061 17062 28
13650 17061 17063 28
13651 17061 17064 28
13652 17061 17065 28
13653 17066 17067 28
13654 17066 17068 28
13655 17066 17069 28
13656 17066 17070 28
13657 17071 17072 28
13658 17071 17073 28
13659 17071 17074 28
13660 17071 17075 28
13661 17076 17077 28
13662 17076 17078 28
13663 17076 17079 28
13664 17076 17080 28
13665 17081 17082 28
13666 17081 17083 28
13667 17081 17084 28
13668 17081 17085 28
13669 17086 17087 28
13670 17086 17088 28
13671 17086 17089 28
13672 17086 17090 28
13673 17091 17092 28
13674 17091 17093 28
13675 17091 17094 28
13676 17091 17095 28
13677 17096 17097 28
13678 17096 17098 28
13679 17096 17099 28
13680 17096 17100 28
13681 17101 17102 28
13682 17101 17103 28
13683 17101 17104 28
13684 17101 17105 28
13685 17106 17107 28
13686 17106 17108 28
13687 17106 17109 28
13688 17106 17110 28
13689 17111 17112 28
13690 17111 17113 28
13691 17111 17114 28
13692 17111 17115 28
13693 17116 17117 28
13694 17116 17118 28
13695 17116 17119 28
13696 17116 17120 28
13697 17121 17122 28
13698 17121 17123 28
13699 17121 17124 28
13700 17121 17125 28
13701 17126 17127 28
13702 17126 17128 28
13703 17126 17129 28
13704 17126 17130 28
13705 17131 17132 28
13706 17131 17133 28
13707 17131 17134 28
13708 17131 17135 28
13709 17136 17137 28
13710 17136 17138 28
13711 17136 17139 28
13712 17136 17140 28
13713 17141 17142 28
13714 17141 17143 28
13715 17141 17144 28
13716 17141 17145 28
13717 17146 17147 28
13718 17146 17148 28
13719 17146 17149 28
13720 17146 17150 28
13721 17151 17152 28
13722 17151 17153 28
13723 17151 17154 28
13724 17151 17155 28
13725 17156 17157 28
13726 17156 17158 28
13727 17156 17159 28
13728 17156 17160 28
13729 17161 17162 28
13730 17161 17163 28
13731 17161 17164 28
13732 17161 17165 28
13733 17166 17167 28
13734 17166 17168 28
13735 17166 17169 28
13736 17166 17170 28
13737 17171 17172 28
13738 17171 17173 28
13739 17171 17174 28
13740 17171 17175 28
13741 17176 17177 28
13742 17176 17178 28
13743 17176 17179 28
13744 17176 17180 28
13745 17181 17182 28
13746 17181 17183 28
13747 17181 17184 28
13748 17181 17185 28
13749 17186 17187 28
13750 17186 17188 28
13751 17186 17189 28
13752 17186 17190 28
13753 17191 17192 28
13754 17191 17193 28
13755 17191 17194 28
13756 17191 17195 28
13757 17196 17197 28
13758 17196 17198 28
13759 17196 17199 28
13760 17196 17200 28
13761 17201 17202 28
13762 17201 17203 28
13763 17201 17204 28
13764 17201 17205 28
13765 17206 17207 28
13766 17206 17208 28
13767 17206 17209 28
13768 17206 17210 28
13769 17211 17212 28
13770 17211 17213 28
13771 17211 17214 28
13772 17211 17215 28
13773 17216 17217 28
13774 17216 17218 28
13775 17216 17219 28
13776 17216 17220 28
13777 17221 17222 28
13778 17221 17223 28
13779 17221 17224 28
13780 17221 17225 28
13781 17226 17227 28
13782 17226 17228 28
13783 17226 17229 28
13784 17226 17230 28
13785 17231 17232 28
13786 17231 17233 28
13787 17231 17234 28
13788 17231 17235 28
13789 17236 17237 28
13790 17236 17238 28
13791 17236 17239 28
13792 17236 17240 28
13793 17241 17242 28
13794 17241 17243 28
13795 17241 17244 28
13796 17241 17245 28
13797 17246 17247 28
13798 17246 17248 28
13799 17246 17249 28
13800 17246 17250 28
13801 17251 17252 28
13802 17251 17253 28
13803 17251 17254 28
13804 17251 17255 28
13805 17256 17257 28
13806 17256 17258 28
13807 17256 17259 28
13808 17256 17260 28
13809 17261 17262 28
13810 17261 17263 28
13811 17261 17264 28
13812 17261 17265 28
13813 17266 17267 28
13814 17266 17268 28
13815 17266 17269 28
13816 17266 17270 28
13817 17271 17272 28
13818 17271 17273 28
13819 17271 17274 28
13820 17271 17275 28
13821 17276 17277 28
13822 17276 17278 28
13823 17276 17279 28
13824 17276 17280 28
13825 17281 17282 28
13826 17281 17283 28
13827 17281 17284 28
13828 17281 17285 28
13829 17286 17287 28
13830 17286 17288 28
13831 17286 17289 28
13832 17286 17290 28
13833 17291 17292 28
13834 17291 17293 28
13835 17291 17294 28
13836 17291 17295 28
13837 17296 17297 28
13838 17296 17298 28
13839 17296 17299 28
13840 17296 17300 28
13841 17301 17302 28
13842 17301 17303 28
13843 17301 17304 28
13844 17301 17305 28
13845 17306 17307 28
13846 17306 17308 28
13847 17306 17309 28
13848 17306 17310 28
13849 17311 17312 28
13850 17311 17313 28
13851 17311 17314 28
13852 17311 17315 28
13853 17316 17317 28
13854 17316 17318 28
13855 17316 17319 28
13856 17316 17320 28
13857 17321 17322 28
13858 17321 17323 28
13859 17321 17324 28
13860 17321 17325 28
13861 17326 17327 28
13862 17326 17328 28
13863 17326 17329 28
13864 17326 17330 28
13865 17331 17332 28
13866 17331 17333 28
13867 17331 17334 28
13868 17331 17335 28
13869 17336 17337 28
13870 17336 17338 28
13871 17336 17339 28
13872 17336 17340 28
13873 17341 17342 28
13874 17341 17343 28
13875 17341 17344 28
13876 17341 17345 28
13877 17346 17347 28
13878 17346 17348 28
13879 17346 17349 28
13880 17346 17350 28
13881 17351 17352 28
13882 17351 17353 28
13883 17351 17354 28
13884 17351 17355 28
13885 17356 17357 28
13886 17356 17358 28
13887 17356 17359 28
13888 17356 17360 28
13889 17361 17362 28
13890 17361 17363 28
13891 17361 17364 28
13892 17361 17365 28
13893 17366 17367 28
13894 17366 17368 28
13895 17366 17369 28
13896 17366 17370 28
13897 17371 17372 28
13898 17371 17373 28
13899 17371 17374 28
13900 17371 17375 28
13901 17376 17377 28
13902 17376 17378 28
13903 17376 17379 28
13904 17376 17380 28
13905 17381 17382 28
13906 17381 17383 28
13907 17381 17384 28
13908 17381 17385 28
13909 17386 17387 28
13910 17386 17388 28
13911 17386 17389 28
13912 17386 17390 28
13913 17391 17392 28
13914 17391 17393 28
13915 17391 17394 28
13916 17391 17395 28
13917 17396 17397 28
13918 17396 17398 28
13919 17396 17399 28
13920 17396 17400 28
13921 17401 17402 28
13922 17401 17403 28
13923 17401 17404 28
13924 17401 17405 28
13925 17406 17407 28
13926 17406 17408 28
13927 17406 17409 28
13928 17406 17410 28
13929 17411 17412 28
13930 17411 17413 28
13931 17411 17414 28
13932 17411 17415 28
13933 17416 17417 28
13934 17416 17418 28
13935 17416 17419 28
13936 17416 17420 28
13937 17421 17422 28
13938 17421 17423 28
13939 17421 17424 28
13940 17421 17425 28
13941 17426 17427 28
13942 17426 17428 28
13943 17426 17429 28
13944 17426 17430 28
13945 17431 17432 28
13946 17431 17433 28
13947 17431 17434 28
13948 17431 17435 28
13949 17436 17437 28
13950 17436 17438 28
13951 17436 17439 28
13952 17436 17440 28
13953 17441 17442 28
13954 17441 17443 28
13955 17441 17444 28
13956 17441 17445 28
13957 17446 17447 28
13958 17446 17448 28
13959 17446 17449 28
13960 17446 17450 28
13961 17451 17452 28
13962 17451 17453 28
13963 17451 17454 28
13964 17451 17455 28
13965 17456 17457 28
13966 17456 17458 28
13967 17456 17459 28
13968 17456 17460 28
13969 17461 17462 28
13970 17461 17463 28
13971 17461 17464 28
13972 17461 17465 28
13973 17466 17467 28
13974 17466 17468 28
13975 17466 17469 28
13976 17466 17470 28
13977 17471 17472 28
13978 17471 17473 28
13979 17471 17474 28
13980 17471 17475 28
13981 17476 17477 28
13982 17476 17478 28
13983 17476 17479 28
13984 17476 17480 28
13985 17481 17482 28
13986 17481 17483 28
13987 17481 17484 28
13988 17481 17485 28
13989 17486 17487 28
13990 17486 17488 28
13991 17486 17489 28
13992 17486 17490 28
13993 17491 17492 28
13994 17491 17493 28
13995 17491 17494 28
13996 17491 17495 28
13997 17496 17497 28
13998 17496 17498 28
13999 17496 17499 28
14000 17496 17500 28
14001 17501 17502 28
14002 17501 17503 28
14003 17501 17504 28
14004 17501 17505 28
14005 17506 17507 28
14006 17506 17508 28
14007 17506 17509 28
14008 17506 17510 28
14009 17511 17512 28
14010 17511 17513 28
14011 17511 17514 28
14012 17511 17515 28
14013 17516 17517 28
14014 17516 17518 28
14015 17516 17519 28
14016 17516 17520 28
14017 17521 17522 28
14018 17521 17523 28
14019 17521 17524 28
14020 17521 17525 28
14021 17526 17527 28
14022 17526 17528 28
14023 17526 17529 28
14024 17526 17530 28
14025 17531 17532 28
14026 17531 17533 28
14027 17531 17534 28
14028 17531 17535 28
14029 17536 17537 28
14030 17536 17538 28
14031 17536 17539 28
14032 17536 17540 28
14033 17541 17542 28
14034 17541 17543 28
14035 17541 17544 28
14036 17541 17545 28
14037 17546 17547 28
14038 17546 17548 28
14039 17546 17549 28
14040 17546 17550 28
14041 17551 17552 28
14042 17551 17553 28
14043 17551 17554 28
14044 17551 17555 28
14045 17556 17557 28
14046 17556 17558 28
14047 17556 17559 28
14048 17556 17560 28
14049 17561 17562 28
14050 17561 17563 28
14051 17561 17564 28
14052 17561 17565 28
14053 17566 17567 28
14054 17566 17568 28
14055 17566 17569 28
14056 17566 17570 28
14057 17571 17572 28
14058 17571 17573 28
14059 17571 17574 28
14060 17571 17575 28
14061 17576 17577 28
14062 17576 17578 28
14063 17576 17579 28
14064 17576 17580 28
14065 17581 17582 28
14066 17581 17583 28
14067 17581 17584 28
14068 17581 17585 28
14069 17586 17587 28
14070 17586 17588 28
14071 17586 17589 28
14072 17586 17590 28
14073 17591 17592 28
14074 17591 17593 28
14075 17591 17594 28
14076 17591 17595 28
14077 17596 17597 28
14078 17596 17598 28
14079 17596 17599 28
14080 17596 17600 28
14081 17601 17602 28
14082 17601 17603 28
14083 17601 17604 28
14084 17601 17605 28
14085 17606 17607 28
14086 17606 17608 28
14087 17606 17609 28
14088 17606 17610 28
14089 17611 17612 28
14090 17611 17613 28
14091 17611 17614 28
14092 17611 17615 28
14093 17616 17617 28
14094 17616 17618 28
14095 17616 17619 28
14096 17616 17620 28
14097 17621 17622 28
14098 17621 17623 28
14099 17621 17624 28
14100 17621 17625 28
14101 17626 17627 28
14102 17626 17628 28
14103 17626 17629 28
14104 17626 17630 28
14105 17631 17632 28
14106 17631 17633 28
14107 17631 17634 28
14108 17631 17635 28
14109 17636 17637 28
14110 17636 17638 28
14111 17636 17639 28
14112 17636 17640 28
14113 17641 17642 28
14114 17641 17643 28
14115 17641 17644 28
14116 17641 17645 28
14117 17646 17647 28
14118 17646 17648 28
14119 17646 17649 28
14120 17646 17650 28
14121 17651 17652 28
14122 17651 17653 28
14123 17651 17654 28
14124 17651 17655 28
14125 17656 17657 28
14126 17656 17658 28
14127 17656 17659 28
14128 17656 17660 28
14129 17661 17662 28
14130 17661 17663 28
14131 17661 17664 28
14132 17661 17665 28
14133 17666 17667 28
14134 17666 17668 28
14135 17666 17669 28
14136 17666 17670 28
14137 17671 17672 28
14138 17671 17673 28
14139 17671 17674 28
14140 17671 17675 28
14141 17676 17677 28
14142 17676 17678 28
14143 17676 17679 28
14144 17676 17680 28
14145 17681 17682 28
14146 17681 17683 28
14147 17681 17684 28
14148 17681 17685 28
14149 17686 17687 28
14150 17686 17688 28
14151 17686 17689 28
14152 17686 17690 28
14153 17691 17692 28
14154 17691 17693 28
14155 17691 17694 28
14156 17691 17695 28
14157 17696 17697 28
14158 17696 17698 28
14159 17696 17699 28
14160 17696 17700 28
14161 17701 17702 28
14162 17701 17703 28
14163 17701 17704 28
14164 17701 17705 28
14165 17706 17707 28
14166 17706 17708 28
14167 17706 17709 28
14168 17706 17710 28
14169 17711 17712 28
14170 17711 17713 28
14171 17711 17714 28
14172 17711 17715 28
14173 17716 17717 28
14174 17716 17718 28
14175 17716 17719 28
14176 17716 17720 28
14177 17721 17722 28
14178 17721 17723 28
14179 17721 17724 28
14180 17721 17725 28
14181 17726 17727 28
14182 17726 17728 28
14183 17726 17729 28
14184 17726 17730 28
14185 17731 17732 28
14186 17731 17733 28
14187 17731 17734 28
14188 17731 17735 28
14189 17736 17737 28
14190 17736 17738 28
14191 17736 17739 28
14192 17736 17740 28
14193 17741 17742 28
14194 17741 17743 28
14195 17741 17744 28
14196 17741 17745 28
14197 17746 17747 28
14198 17746 17748 28
14199 17746 17749 28
14200 17746 17750 28
14201 17751 17752 28
14202 17751 17753 28
14203 17751 17754 28
14204 17751 17755 28
14205 17756 17757 28
14206 17756 17758 28
14207 17756 17759 28
14208 17756 17760 28
14209 17761 17762 28
14210 17761 17763 28
14211 17761 17764 28
14212 17761 17765 28
14213 17766 17767 28
14214 17766 17768 28
14215 17766 17769 28
14216 17766 17770 28
14217 17771 17772 28
14218 17771 17773 28
14219 17771 17774 28
14220 17771 17775 28
14221 17776 17777 28
14222 17776 17778 28
14223 17776 17779 28
14224 17776 17780 28
14225 17781 17782 28
14226 17781 17783 28
14227 17781 17784 28
14228 17781 17785 28
14229 17786 17787 28
14230 17786 17788 28
14231 17786 17789 28
14232 17786 17790 28
14233 17791 17792 28
14234 17791 17793 28
14235 17791 17794 28
14236 17791 17795 28
14237 17796 17797 28
14238 17796 17798 28
14239 17796 17799 28
14240 17796 17800 28
14241 17801 17802 28
14242 17801 17803 28
14243 17801 17804 28
14244 17801 17805 28
14245 17806 17807 28
14246 17806 17808 28
14247 17806 17809 28
14248 17806 17810 28
14249 17811 17812 28
14250 17811 17813 28
14251 17811 17814 28
14252 17811 17815 28
14253 17816 17817 28
14254 17816 17818 28
14255 17816 17819 28
14256 17816 17820 28
14257 17821 17822 28
14258 17821 17823 28
14259 17821 17824 28
14260 17821 17825 28
14261 17826 17827 28
14262 17826 17828 28
14263 17826 17829 28
14264 17826 17830 28
14265 17831 17832 28
14266 17831 17833 28
14267 17831 17834 28
14268 17831 17835 28
14269 17836 17837 28
14270 17836 17838 28
14271 17836 17839 28
14272 17836 17840 28
14273 17841 17842 28
14274 17841 17843 28
14275 17841 17844 28
14276 17841 17845 28
14277 17846 17847 28
14278 17846 17848 28
14279 17846 17849 28
14280 17846 17850 28
14281 17851 17852 28
14282 17851 17853 28
14283 17851 17854 28
14284 17851 17855 28
14285 17856 17857 28
14286 17856 17858 28
14287 17856 17859 28
14288 17856 17860 28
14289 17861 17862 28
14290 17861 17863 28
14291 17861 17864 28
14292 17861 17865 28
14293 17866 17867 28
14294 17866 17868 28
14295 17866 17869 28
14296 17866 17870 28
14297 17871 17872 28
14298 17871 17873 28
14299 17871 17874 28
14300 17871 17875 28
14301 17876 17877 28
14302 17876 17878 28
14303 17876 17879 28
14304 17876 17880 28
14305 17881 17882 28
14306 17881 17883 28
14307 17881 17884 28
14308 17881 17885 28
14309 17886 17887 28
14310 17886 17888 28
14311 17886 17889 28
14312 17886 17890 28
14313 17891 17892 28
14314 17891 17893 28
14315 17891 17894 28
14316 17891 17895 28
14317 17896 17897 28
14318 17896 17898 28
14319 17896 17899 28
14320 17896 17900 28
14321 17901 17902 28
14322 17901 17903 28
14323 17901 17904 28
14324 17901 17905 28
14325 17906 17907 28
14326 17906 17908 28
14327 17906 17909 28
14328 17906 17910 28
14329 17911 17912 28
14330 17911 17913 28
14331 17911 17914 28
14332 17911 17915 28
14333 17916 17917 28
14334 17916 17918 28
14335 17916 17919 28
14336 17916 17920 28
14337 17921 17922 28
14338 17921 17923 28
14339 17921 17924 28
14340 17921 17925 28
14341 17926 17927 28
14342 17926 17928 28
14343 17926 17929 28
14344 17926 17930 28
14345 17931 17932 28
14346 17931 17933 28
14347 17931 17934 28
14348 17931 17935 28
14349 17936 17937 28
14350 17936 17938 28
14351 17936 17939 28
14352 17936 17940 28
14353 17941 17942 28
14354 17941 17943 28
14355 17941 17944 28
14356 17941 17945 28
14357 17946 17947 28
14358 17946 17948 28
14359 17946 17949 28
14360 17946 17950 28
14361 17951 17952 28
14362 17951 17953 28
14363 17951 17954 28
14364 17951 17955 28
14365 17956 17957 28
14366 17956 17958 28
14367 17956 17959 28
14368 17956 17960 28
14369 17961 17962 28
14370 17961 17963 28
14371 17961 17964 28
14372 17961 17965 28
14373 17966 17967 28
14374 17966 17968 28
14375 17966 17969 28
14376 17966 17970 28
14377 17971 17972 28
14378 17971 17973 28
14379 17971 17974 28
14380 17971 17975 28
14381 17976 17977 28
14382 17976 17978 28
14383 17976 17979 28
14384 17976 17980 28
14385 17981 17982 28
14386 17981 17983 28
14387 17981 17984 28
14388 17981 17985 28
14389 17986 17987 28
14390 17986 17988 28
14391 17986 17989 28
14392 17986 17990 28
14393 17991 17992 28
14394 17991 17993 28
14395 17991 17994 28
14396 17991 17995 28
14397 17996 17997 28
14398 17996 17998 28
14399 17996 17999 28
14400 17996 18000 28
14401 18001 18002 28
14402 18001 18003 28
14403 18001 18004 28
14404 18001 18005 28
14405 18006 18007 28
14406 18006 18008 28
14407 18006 18009 28
14408 18006 18010 28
14409 18011 18012 28
14410 18011 18013 28
14411 18011 18014 28
14412 18011 18015 28
14413 18016 18017 28
14414 18016 18018 28
14415 18016 18019 28
14416 18016 18020 28
14417 18021 18022 28
14418 18021 18023 28
14419 18021 18024 28
14420 18021 18025 28
14421 18026 18027 28
14422 18026 18028 28
14423 18026 18029 28
14424 18026 18030 28
14425 18031 18032 28
14426 18031 18033 28
14427 18031 18034 28
14428 18031 18035 28
14429 18036 18037 28
14430 18036 18038 28
14431 18036 18039 28
14432 18036 18040 28
14433 18041 18042 28
14434 18041 18043 28
14435 18041 18044 28
14436 18041 18045 28
14437 18046 18047 28
14438 18046 18048 28
14439 18046 18049 28
14440 18046 18050 28
14441 18051 18052 28
14442 18051 18053 28
14443 18051 18054 28
14444 18051 18055 28
14445 18056 18057 28
14446 18056 18058 28
14447 18056 18059 28
14448 18056 18060 28
14449 18061 18062 28
14450 18061 18063 28
14451 18061 18064 28
14452 18061 18065 28
14453 18066 18067 28
14454 18066 18068 28
14455 18066 18069 28
14456 18066 18070 28
14457 18071 18072 28
14458 18071 18073 28
14459 18071 18074 28
14460 18071 18075 28
14461 18076 18077 28
14462 18076 18078 28
14463 18076 18079 28
14464 18076 18080 28
14465 18081 18082 28
14466 18081 18083 28
14467 18081 18084 28
14468 18081 18085 28
14469 18086 18087 28
14470 18086 18088 28
14471 18086 18089 28
14472 18086 18090 28
14473 18091 18092 28
14474 18091 18093 28
14475 18091 18094 28
14476 18091 18095 28
14477 18096 18097 28
14478 18096 18098 28
14479 18096 18099 28
14480 18096 18100 28
14481 18101 18102 28
14482 18101 18103 28
14483 18101 18104 28
14484 18101 18105 28
14485 18106 18107 28
14486 18106 18108 28
14487 18106 18109 28
14488 18106 18110 28
14489 18111 18112 28
14490 18111 18113 28
14491 18111 18114 28
14492 18111 18115 28
14493 18116 18117 28
14494 18116 18118 28
14495 18116 18119 28
14496 18116 18120 28
14497 18121 18122 28
14498 18121 18123 28
14499 18121 18124 28
14500 18121 18125 28
14501 18126 18127 28
14502 18126 18128 28
14503 18126 18129 28
14504 18126 18130 28
14505 18131 18132 28
14506 18131 18133 28
14507 18131 18134 28
14508 18131 18135 28
14509 18136 18137 28
14510 18136 18138 28
14511 18136 18139 28
14512 18136 18140 28
14513 18141 18142 28
14514 18141 18143 28
14515 18141 18144 28
14516 18141 18145 28
14517 18146 18147 28
14518 18146 18148 28
14519 18146 18149 28
14520 18146 18150 28
14521 18151 18152 28
14522 18151 18153 28
14523 18151 18154 28
14524 18151 18155 28
14525 18156 18157 28
14526 18156 18158 28
14527 18156 18159 28
14528 18156 18160 28
14529 18161 18162 28
14530 18161 18163 28
14531 18161 18164 28
14532 18161 18165 28
14533 18166 18167 28
14534 18166 18168 28
14535 18166 18169 28
14536 18166 18170 28
14537 18171 18172 28
14538 18171 18173 28
14539 18171 18174 28
14540 18171 18175 28
14541 18176 18177 28
14542 18176 18178 28
14543 18176 18179 28
14544 18176 18180 28
14545 18181 18182 28
14546 18181 18183 28
14547 18181 18184 28
14548 18181 18185 28
14549 18186 18187 28
14550 18186 18188 28
14551 18186 18189 28
14552 18186 18190 28
14553 18191 18192 28
14554 18191 18193 28
14555 18191 18194 28
14556 18191 18195 28
14557 18196 18197 28
14558 18196 18198 28
14559 18196 18199 28
14560 18196 18200 28
14561 18201 18202 28
14562 18201 18203 28
14563 18201 18204 28
14564 18201 18205 28
14565 18206 18207 28
14566 18206 18208 28
14567 18206 18209 28
14568 18206 18210 28
14569 18211 18212 28
14570 18211 18213 28
14571 18211 18214 28
14572 18211 18215 28
14573 18216 18217 28
14574 18216 18218 28
14575 18216 18219 28
14576 18216 18220 28
14577 18221 18222 28
14578 18221 18223 28
14579 18221 18224 28
14580 18221 18225 28
14581 18226 18227 28
14582 18226 18228 28
14583 18226 18229 28
14584 18226 18230 28
14585 18231 18232 28
14586 18231 18233 28
14587 18231 18234 28
14588 18231 18235 28
14589 18236 18237 28
14590 18236 18238 28
14591 18236 18239 28
14592 18236 18240 28
14593 18241 18242 28
14594 18241 18243 28
14595 18241 18244 28
14596 18241 18245 28
14597 18246 18247 28
14598 18246 18248 28
14599 18246 18249 28
14600 18246 18250 28
14601 18251 18252 28
14602 18251 18253 28
14603 18251 18254 28
14604 18251 18255 28
14605 18256 18257 28
14606 18256 18258 28
14607 18256 18259 28
14608 18256 18260 28
14609 18261 18262 28
14610 18261 18263 28
14611 18261 18264 28
14612 18261 18265 28
14613 18266 18267 28
14614 18266 18268 28
14615 18266 18269 28
14616 18266 18270 28
14617 18271 18272 28
14618 18271 18273 28
14619 18271 18274 28
14620 18271 18275 28
14621 18276 18277 28
14622 18276 18278 28
14623 18276 18279 28
14624 18276 18280 28
14625 18281 18282 28
14626 18281 18283 28
14627 18281 18284 28
14628 18281 18285 28
14629 18286 18287 28
14630 18286 18288 28
14631 18286 18289 28
14632 18286 18290 28
14633 18291 18292 28
14634 18291 18293 28
14635 18291 18294 28
14636 18291 18295 28
14637 18296 18297 28
14638 18296 18298 28
14639 18296 18299 28
14640 18296 18300 28
14641 18301 18302 28
14642 18301 18303 28
14643 18301 18304 28
14644 18301 18305 28
14645 18306 18307 28
14646 18306 18308 28
14647 18306 18309 28
14648 18306 18310 28
14649 18311 18312 28
14650 18311 18313 28
14651 18311 18314 28
14652 18311 18315 28
14653 18316 18317 28
14654 18316 18318 28
14655 18316 18319 28
14656 18316 18320 28
14657 18321 18322 28
14658 18321 18323 28
14659 18321 18324 28
14660 18321 18325 28
14661 18326 18327 28
14662 18326 18328 28
14663 18326 18329 28
14664 18326 18330 28
14665 18331 18332 28
14666 18331 18333 28
14667 18331 18334 28
14668 18331 18335 28
14669 18336 18337 28
14670 18336 18338 28
14671 18336 18339 28
14672 18336 18340 28
14673 18341 18342 28
14674 18341 18343 28
14675 18341 18344 28
14676 18341 18345 28
14677 18346 18347 28
14678 18346 18348 28
14679 18346 18349 28
14680 18346 18350 28
14681 18351 18352 28
14682 18351 18353 28
14683 18351 18354 28
14684 18351 18355 28
14685 18356 18357 28
14686 18356 18358 28
14687 18356 18359 28
14688 18356 18360 28
14689 18361 18362 28
14690 18361 18363 28
14691 18361 18364 28
14692 18361 18365 28
14693 18366 18367 28
14694 18366 18368 28
14695 18366 18369 28
14696 18366 18370 28
14697 18371 18372 28
14698 18371 18373 28
14699 18371 18374 28
14700 18371 18375 28
14701 18376 18377 28
14702 18376 18378 28
14703 18376 18379 28
14704 18376 18380 28
14705 18381 18382 28
14706 18381 18383 28
14707 18381 18384 28
14708 18381 18385 28
14709 18386 18387 28
14710 18386 18388 28
14711 18386 18389 28
14712 18386 18390 28
14713 18391 18392 28
14714 18391 18393 28
14715 18391 18394 28
14716 18391 18395 28
14717 18396 18397 28
14718 18396 18398 28
14719 18396 18399 28
14720 18396 18400 28
14721 18401 18402 28
14722 18401 18403 28
14723 18401 18404 28
14724 18401 18405 28
14725 18406 18407 28
14726 18406 18408 28
14727 18406 18409 28
14728 18406 18410 28
14729 18411 18412 28
14730 18411 18413 28
14731 18411 18414 28
14732 18411 18415 28
14733 18416 18417 28
14734 18416 18418 28
14735 18416 18419 28
14736 18416 18420 28
14737 18421 18422 28
14738 18421 18423 28
14739 18421 18424 28
14740 18421 18425 28
14741 18426 18427 28
14742 18426 18428 28
14743 18426 18429 28
14744 18426 18430 28
14745 18431 18432 28
14746 18431 18433 28
14747 18431 18434 28
14748 18431 18435 28
14749 18436 18437 28
14750 18436 18438 28
14751 18436 18439 28
14752 18436 18440 28
14753 18441 18442 28
14754 18441 18443 28
14755 18441 18444 28
14756 18441 18445 28
14757 18446 18447 28
14758 18446 18448 28
14759 18446 18449 28
14760 18446 18450 28
14761 18451 18452 28
14762 18451 18453 28
14763 18451 18454 28
14764 18451 18455 28
14765 18456 18457 28
14766 18456 18458 28
14767 18456 18459 28
14768 18456 18460 28
14769 18461 18462 28
14770 18461 18463 28
14771 18461 18464 28
14772 18461 18465 28
14773 18466 18467 28
14774 18466 18468 28
14775 18466 18469 28
14776 18466 18470 28
14777 18471 18472 28
14778 18471 18473 28
14779 18471 18474 28
14780 18471 18475 28
14781 18476 18477 28
14782 18476 18478 28
14783 18476 18479 28
14784 18476 18480 28
14785 18481 18482 28
14786 18481 18483 28
14787 18481 18484 28
14788 18481 18485 28
14789 18486 18487 28
14790 18486 18488 28
14791 18486 18489 28
14792 18486 18490 28
14793 18491 18492 28
14794 18491 18493 28
14795 18491 18494 28
14796 18491 18495 28
14797 18496 18497 28
14798 18496 18498 28
14799 18496 18499 28
14800 18496 18500 28
14801 18501 18502 28
14802 18501 18503 28
14803 18501 18504 28
14804 18501 18505 28
14805 18506 18507 28
14806 18506 18508 28
14807 18506 18509 28
14808 18506 18510 28
14809 18511 18512 28
14810 18511 18513 28
14811 18511 18514 28
14812 18511 18515 28
14813 18516 18517 28
14814 18516 18518 28
14815 18516 18519 28
14816 18516 18520 28
14817 18521 18522 28
14818 18521 18523 28
14819 18521 18524 28
14820 18521 18525 28
14821 18526 18527 28
14822 18526 18528 28
14823 18526 18529 28
14824 18526 18530 28
14825 18531 18532 28
14826 18531 18533 28
14827 18531 18534 28
14828 18531 18535 28
14829 18536 18537 28
14830 18536 18538 28
14831 18536 18539 28
14832 18536 18540 28
14833 18541 18542 28
14834 18541 18543 28
14835 18541 18544 28
14836 18541 18545 28
14837 18546 18547 28
14838 18546 18548 28
14839 18546 18549 28
14840 18546 18550 28
14841 18551 18552 28
14842 18551 18553 28
14843 18551 18554 28
14844 18551 18555 28
14845 18556 18557 28
14846 18556 18558 28
14847 18556 18559 28
14848 18556 18560 28
14849 18561 18562 28
14850 18561 18563 28
14851 18561 18564 28
14852 18561 18565 28
14853 18566 18567 28
14854 18566 18568 28
14855 18566 18569 28
14856 18566 18570 28
14857 18571 18572 28
14858 18571 18573 28
14859 18571 18574 28
14860 18571 18575 28
14861 18576 18577 28
14862 18576 18578 28
14863 18576 18579 28
14864 18576 18580 28
14865 18581 18582 28
14866 18581 18583 28
14867 18581 18584 28
14868 18581 18585 28
14869 18586 18587 28
14870 18586 18588 28
14871 18586 18589 28
14872 18586 18590 28
14873 18591 18592 28
14874 18591 18593 28
14875 18591 18594 28
14876 18591 18595 28
14877 18596 18597 28
14878 18596 18598 28
14879 18596 18599 28
14880 18596 18600 28
14881 18601 18602 28
14882 18601 18603 28
14883 18601 18604 28
14884 18601 18605 28
14885 18606 18607 28
14886 18606 18608 28
14887 18606 18609 28
14888 18606 18610 28
14889 18611 18612 28
14890 18611 18613 28
14891 18611 18614 28
14892 18611 18615 28
14893 18616 18617 28
14894 18616 18618 28
14895 18616 18619 28
14896 18616 18620 28
14897 18621 18622 28
14898 18621 18623 28
14899 18621 18624 28
14900 18621 18625 28
14901 18626 18627 28
14902 18626 18628 28
14903 18626 18629 28
14904 18626 18630 28
14905 18631 18632 28
14906 18631 18633 28
14907 18631 18634 28
14908 18631 18635 28
14909 18636 18637 28
14910 18636 18638 28
14911 18636 18639 28
14912 18636 18640 28
14913 18641 18642 28
14914 18641 18643 28
14915 18641 18644 28
14916 18641 18645 28
14917 18646 18647 28
14918 18646 18648 28
14919 18646 18649 28
14920 18646 18650 28
14921 18651 18652 28
14922 18651 18653 28
14923 18651 18654 28
14924 18651 18655 28
14925 18656 18657 28
14926 18656 18658 28
14927 18656 18659 28
14928 18656 18660 28
14929 18661 18662 28
14930 18661 18663 28
14931 18661 18664 28
14932 18661 18665 28
14933 18666 18667 28
14934 18666 18668 28
14935 18666 18669 28
14936 18666 18670 28
14937 18671 18672 28
14938 18671 18673 28
14939 18671 18674 28
14940 18671 18675 28
14941 18676 18677 28
14942 18676 18678 28
14943 18676 18679 28
14944 18676 18680 28
14945 18681 18682 28
14946 18681 18683 28
14947 18681 18684 28
14948 18681 18685 28
14949 18686 18687 28
14950 18686 18688 28
14951 18686 18689 28
14952 18686 18690 28
14953 18691 18692 28
14954 18691 18693 28
14955 18691 18694 28
14956 18691 18695 28
14957 18696 18697 28
14958 18696 18698 28
14959 18696 18699 28
14960 18696 18700 28
14961 18701 18702 28
14962 18701 18703 28
14963 18701 18704 28
14964 18701 18705 28
14965 18706 18707 28
14966 18706 18708 28
14967 18706 18709 28
14968 18706 18710 28
14969 18711 18712 28
14970 18711 18713 28
14971 18711 18714 28
14972 18711 18715 28
14973 18716 18717 28
14974 18716 18718 28
14975 18716 18719 28
14976 18716 18720 28
14977 18721 18722 28
14978 18721 18723 28
14979 18721 18724 28
14980 18721 18725 28
14981 18726 18727 28
14982 18726 18728 28
14983 18726 18729 28
14984 18726 18730 28
14985 18731 18732 28
14986 18731 18733 28
14987 18731 18734 28
14988 18731 18735 28
14989 18736 18737 28
14990 18736 18738 28
14991 18736 18739 28
14992 18736 18740 28
14993 18741 18742 28
14994 18741 18743 28
14995 18741 18744 28
14996 18741 18745 28
14997 18746 18747 28
14998 18746 18748 28
14999 18746 18749 28
15000 18746 18750 28
15001 18751 18752 28
15002 18751 18753 28
15003 18751 18754 28
15004 18751 18755 28
15005 18756 18757 28
15006 18756 18758 28
15007 18756 18759 28
15008 18756 18760 28
15009 18761 18762 28
15010 18761 18763 28
15011 18761 18764 28
15012 18761 18765 28
15013 18766 18767 28
15014 18766 18768 28
15015 18766 18769 28
15016 18766 18770 28
15017 18771 18772 28
15018 18771 18773 28
15019 18771 18774 28
15020 18771 18775 28
15021 18776 18777 28
15022 18776 18778 28
15023 18776 18779 28
15024 18776 18780 28
15025 18781 18782 28
15026 18781 18783 28
15027 18781 18784 28
15028 18781 18785 28
15029 18786 18787 28
15030 18786 18788 28
15031 18786 18789 28
15032 18786 18790 28
15033 18791 18792 28
15034 18791 18793 28
15035 18791 18794 28
15036 18791 18795 28
15037 18796 18797 28
15038 18796 18798 28
15039 18796 18799 28
15040 18796 18800 28
15041 18801 18802 28
15042 18801 18803 28
15043 18801 18804 28
15044 18801 18805 28
15045 18806 18807 28
15046 18806 18808 28
15047 18806 18809 28
15048 18806 18810 28
15049 18811 18812 28
15050 18811 18813 28
15051 18811 18814 28
15052 18811 18815 28
15053 18816 18817 28
15054 18816 18818 28
15055 18816 18819 28
15056 18816 18820 28
15057 18821 18822 28
15058 18821 18823 28
15059 18821 18824 28
15060 18821 18825 28
15061 18826 18827 28
15062 18826 18828 28
15063 18826 18829 28
15064 18826 18830 28
15065 18831 18832 28
15066 18831 18833 28
15067 18831 18834 28
15068 18831 18835 28
15069 18836 18837 28
15070 18836 18838 28
15071 18836 18839 28
15072 18836 18840 28
15073 18841 18842 28
15074 18841 18843 28
15075 18841 18844 28
15076 18841 18845 28
15077 18846 18847 28
15078 18846 18848 28
15079 18846 18849 28
15080 18846 18850 28
15081 18851 18852 28
15082 18851 18853 28
15083 18851 18854 28
15084 18851 18855 28
15085 18856 18857 28
15086 18856 18858 28
15087 18856 18859 28
15088 18856 18860 28
15089 18861 18862 28
15090 18861 18863 28
15091 18861 18864 28
15092 18861 18865 28
15093 18866 18867 28
15094 18866 18868 28
15095 18866 18869 28
15096 18866 18870 28
15097 18871 18872 28
15098 18871 18873 28
15099 18871 18874 28
15100 18871 18875 28
15101 18876 18877 28
15102 18876 18878 28
15103 18876 18879 28
15104 18876 18880 28
15105 18881 18882 28
15106 18881 18883 28
15107 18881 18884 28
15108 18881 18885 28
15109 18886 18887 28
15110 18886 18888 28
15111 18886 18889 28
15112 18886 18890 28
15113 18891 18892 28
15114 18891 18893 28
15115 18891 18894 28
15116 18891 18895 28
15117 18896 18897 28
15118 18896 18898 28
15119 18896 18899 28
15120 18896 18900 28
15121 18901 18902 28
15122 18901 18903 28
15123 18901 18904 28
15124 18901 18905 28
15125 18906 18907 28
15126 18906 18908 28
15127 18906 18909 28
15128 18906 18910 28
15129 18911 18912 28
15130 18911 18913 28
15131 18911 18914 28
15132 18911 18915 28
15133 18916 18917 28
15134 18916 18918 28
15135 18916 18919 28
15136 18916 18920 28
15137 18921 18922 28
15138 18921 18923 28
15139 18921 18924 28
15140 18921 18925 28
15141 18926 18927 28
15142 18926 18928 28
15143 18926 18929 28
15144 18926 18930 28
15145 18931 18932 28
15146 18931 18933 28
15147 18931 18934 28
15148 18931 18935 28
15149 18936 18937 28
15150 18936 18938 28
15151 18936 18939 28
15152 18936 18940 28
15153 18941 18942 28
15154 18941 18943 28
15155 18941 18944 28
15156 18941 18945 28
15157 18946 18947 28
15158 18946 18948 28
15159 18946 18949 28
15160 18946 18950 28
15161 18951 18952 28
15162 18951 18953 28
15163 18951 18954 28
15164 18951 18955 28
15165 18956 18957 28
15166 18956 18958 28
15167 18956 18959 28
15168 18956 18960 28
15169 18961 18962 28
15170 18961 18963 28
15171 18961 18964 28
15172 18961 18965 28
15173 18966 18967 28
15174 18966 18968 28
15175 18966 18969 28
15176 18966 18970 28
15177 18971 18972 28
15178 18971 18973 28
15179 18971 18974 28
15180 18971 18975 28
15181 18976 18977 28
15182 18976 18978 28
15183 18976 18979 28
15184 18976 18980 28
15185 18981 18982 28
15186 18981 18983 28
15187 18981 18984 28
15188 18981 18985 28
15189 18986 18987 28
15190 18986 18988 28
15191 18986 18989 28
15192 18986 18990 28
15193 18991 18992 28
15194 18991 18993 28
15195 18991 18994 28
15196 18991 18995 28
15197 18996 18997 28
15198 18996 18998 28
15199 18996 18999 28
15200 18996 19000 28
15201 19001 19002 28
15202 19001 19003 28
15203 19001 19004 28
15204 19001 19005 28
15205 19006 19007 28
15206 19006 19008 28
15207 19006 19009 28
15208 19006 19010 28
15209 19011 19012 28
15210 19011 19013 28
15211 19011 19014 28
15212 19011 19015 28
15213 19016 19017 28
15214 19016 19018 28
15215 19016 19019 28
15216 19016 19020 28
15217 19021 19022 28
15218 19021 19023 28
15219 19021 19024 28
15220 19021 19025 28
15221 19026 19027 28
15222 19026 19028 28
15223 19026 19029 28
15224 19026 19030 28
15225 19031 19032 28
15226 19031 19033 28
15227 19031 19034 28
15228 19031 19035 28
15229 19036 19037 28
15230 19036 19038 28
15231 19036 19039 28
15232 19036 19040 28
15233 19041 19042 28
15234 19041 19043 28
15235 19041 19044 28
15236 19041 19045 28
15237 19046 19047 28
15238 19046 19048 28
15239 19046 19049 28
15240 19046 19050 28
15241 19051 19052 28
15242 19051 19053 28
15243 19051 19054 28
15244 19051 19055 28
15245 19056 19057 28
15246 19056 19058 28
15247 19056 19059 28
15248 19056 19060 28
15249 19061 19062 28
15250 19061 19063 28
15251 19061 19064 28
15252 19061 19065 28
15253 19066 19067 28
15254 19066 19068 28
15255 19066 19069 28
15256 19066 19070 28
15257 19071 19072 28
15258 19071 19073 28
15259 19071 19074 28
15260 19071 19075 28
15261 19076 19077 28
15262 19076 19078 28
15263 19076 19079 28
15264 19076 19080 28
15265 19081 19082 28
15266 19081 19083 28
15267 19081 19084 28
15268 19081 19085 28
15269 19086 19087 28
15270 19086 19088 28
15271 19086 19089 28
15272 19086 19090 28
15273 19091 19092 28
15274 19091 19093 28
15275 19091 19094 28
15276 19091 19095 28
15277 19096 19097 28
15278 19096 19098 28
15279 19096 19099 28
15280 19096 19100 28
15281 19101 19102 28
15282 19101 19103 28
15283 19101 19104 28
15284 19101 19105 28
15285 19106 19107 28
15286 19106 19108 28
15287 19106 19109 28
15288 19106 19110 28
15289 19111 19112 28
15290 19111 19113 28
15291 19111 19114 28
15292 19111 19115 28
15293 19116 19117 28
15294 19116 19118 28
15295 19116 19119 28
15296 19116 19120 28
15297 19121 19122 28
15298 19121 19123 28
15299 19121 19124 28
15300 19121 19125 28
15301 19126 19127 28
15302 19126 19128 28
15303 19126 19129 28
15304 19126 19130 28
15305 19131 19132 28
15306 19131 19133 28
15307 19131 19134 28
15308 19131 19135 28
15309 19136 19137 28
15310 19136 19138 28
15311 19136 19139 28
15312 19136 19140 28
15313 19141 19142 28
15314 19141 19143 28
15315 19141 19144 28
15316 19141 19145 28
15317 19146 19147 28
15318 19146 19148 28
15319 19146 19149 28
15320 19146 19150 28
15321 19151 19152 28
15322 19151 19153 28
15323 19151 19154 28
15324 19151 19155 28
15325 19156 19157 28
15326 19156 19158 28
15327 19156 19159 28
15328 19156 19160 28
15329 19161 19162 28
15330 19161 19163 28
15331 19161 19164 28
15332 19161 19165 28
15333 19166 19167 28
15334 19166 19168 28
15335 19166 19169 28
15336 19166 19170 28
15337 19171 19172 28
15338 19171 19173 28
15339 19171 19174 28
15340 19171 19175 28
15341 19176 19177 28
15342 19176 19178 28
15343 19176 19179 28
15344 19176 19180 28
15345 19181 19182 28
15346 19181 19183 28
15347 19181 19184 28
15348 19181 19185 28
15349 19186 19187 28
15350 19186 19188 28
15351 19186 19189 28
15352 19186 19190 28
15353 19191 19192 28
15354 19191 19193 28
15355 19191 19194 28
15356 19191 19195 28
15357 19196 19197 28
15358 19196 19198 28
15359 19196 19199 28
15360 19196 19200 28
15361 19201 19202 28
15362 19201 19203 28
15363 19201 19204 28
15364 19201 19205 28
15365 19206 19207 28
15366 19206 19208 28
15367 19206 19209 28
15368 19206 19210 28
15369 19211 19212 28
15370 19211 19213 28
15371 19211 19214 28
15372 19211 19215 28
15373 19216 19217 28
15374 19216 19218 28
15375 19216 19219 28
15376 19216 19220 28
15377 19221 19222 28
15378 19221 19223 28
15379 19221 19224 28
15380 19221 19225 28
15381 19226 19227 28
15382 19226 19228 28
15383 19226 19229 28
15384 19226 19230 28
15385 19231 19232 28
15386 19231 19233 28
15387 19231 19234 28
15388 19231 19235 28
15389 19236 19237 28
15390 19236 19238 28
15391 19236 19239 28
15392 19236 19240 28
15393 19241 19242 28
15394 19241 19243 28
15395 19241 19244 28
15396 19241 19245 28
15397 19246 19247 28
15398 19246 19248 28
15399 19246 19249 28
15400 19246 19250 28
15401 19251 19252 28
15402 19251 19253 28
15403 19251 19254 28
15404 19251 19255 28
15405 19256 19257 28
15406 19256 19258 28
15407 19256 19259 28
15408 19256 19260 28
15409 19261 19262 28
15410 19261 19263 28
15411 19261 19264 28
15412 19261 19265 28
15413 19266 19267 28
15414 19266 19268 28
15415 19266 19269 28
15416 19266 19270 28
15417 19271 19272 28
15418 19271 19273 28
15419 19271 19274 28
15420 19271 19275 28
15421 19276 19277 28
15422 19276 19278 28
15423 19276 19279 28
15424 19276 19280 28
15425 19281 19282 28
15426 19281 19283 28
15427 19281 19284 28
15428 19281 19285 28
15429 19286 19287 28
15430 19286 19288 28
15431 19286 19289 28
15432 19286 19290 28
15433 19291 19292 28
15434 19291 19293 28
15435 19291 19294 28
15436 19291 19295 28
15437 19296 19297 28
15438 19296 19298 28
15439 19296 19299 28
15440 19296 19300 28
15441 19301 19302 28
15442 19301 19303 28
15443 19301 19304 28
15444 19301 19305 28
15445 19306 19307 28
15446 19306 19308 28
15447 19306 19309 28
15448 19306 19310 28
15449 19311 19312 28
15450 19311 19313 28
15451 19311 19314 28
15452 19311 19315 28
15453 19316 19317 28
15454 19316 19318 28
15455 19316 19319 28
15456 19316 19320 28
15457 19321 19322 28
15458 19321 19323 28
15459 19321 19324 28
15460 19321 19325 28
15461 19326 19327 28
15462 19326 19328 28
15463 19326 19329 28
15464 19326 19330 28
15465 19331 19332 28
15466 19331 19333 28
15467 19331 19334 28
15468 19331 19335 28
15469 19336 19337 28
15470 19336 19338 28
15471 19336 19339 28
15472 19336 19340 28
15473 19341 19342 28
15474 19341 19343 28
15475 19341 19344 28
15476 19341 19345 28
15477 19346 19347 28
15478 19346 19348 28
15479 19346 19349 28
15480 19346 19350 28
15481 19351 19352 28
15482 19351 19353 28
15483 19351 19354 28
15484 19351 19355 28
15485 19356 19357 28
15486 19356 19358 28
15487 19356 19359 28
15488 19356 19360 28
15489 19361 19362 28
15490 19361 19363 28
15491 19361 19364 28
15492 19361 19365 28
15493 19366 19367 28
15494 19366 19368 28
15495 19366 19369 28
15496 19366 19370 28
15497 19371 19372 28
15498 19371 19373 28
15499 19371 19374 28
15500 19371 19375 28
15501 19376 19377 28
15502 19376 19378 28
15503 19376 19379 28
15504 19376 19380 28
15505 19381 19382 28
15506 19381 19383 28
15507 19381 19384 28
15508 19381 19385 28
15509 19386 19387 28
15510 19386 19388 28
15511 19386 19389 28
15512 19386 19390 28
15513 19391 19392 28
15514 19391 19393 28
15515 19391 19394 28
15516 19391 19395 28
15517 19396 19397 28
15518 19396 19398 28
15519 19396 19399 28
15520 19396 19400 28
15521 19401 19402 28
15522 19401 19403 28
15523 19401 19404 28
15524 19401 19405 28
15525 19406 19407 28
15526 19406 19408 28
15527 19406 19409 28
15528 19406 19410 28
15529 19411 19412 28
15530 19411 19413 28
15531 19411 19414 28
15532 19411 19415 28
15533 19416 19417 28
15534 19416 19418 28
15535 19416 19419 28
15536 19416 19420 28
15537 19421 19422 28
15538 19421 19423 28
15539 19421 19424 28
15540 19421 19425 28
15541 19426 19427 28
15542 19426 19428 28
15543 19426 19429 28
15544 19426 19430 28
15545 19431 19432 28
15546 19431 19433 28
15547 19431 19434 28
15548 19431 19435 28
15549 19436 19437 28
15550 19436 19438 28
15551 19436 19439 28
15552 19436 19440 28
15553 19441 19442 28
15554 19441 19443 28
15555 19441 19444 28
15556 19441 19445 28
15557 19446 19447 28
15558 19446 19448 28
15559 19446 19449 28
15560 19446 19450 28
15561 19451 19452 28
15562 19451 19453 28
15563 19451 19454 28
15564 19451 19455 28
15565 19456 19457 28
15566 19456 19458 28
15567 19456 19459 28
15568 19456 19460 28
15569 19461 19462 28
15570 19461 19463 28
15571 19461 19464 28
15572 19461 19465 28
15573 19466 19467 28
15574 19466 19468 28
15575 19466 19469 28
15576 19466 19470 28
15577 19471 19472 28
15578 19471 19473 28
15579 19471 19474 28
15580 19471 19475 28
15581 19476 19477 28
15582 19476 19478 28
15583 19476 19479 28
15584 19476 19480 28
15585 19481 19482 28
15586 19481 19483 28
15587 19481 19484 28
15588 19481 19485 28
15589 19486 19487 28
15590 19486 19488 28
15591 19486 19489 28
15592 19486 19490 28
15593 19491 19492 28
15594 19491 19493 28
15595 19491 19494 28
15596 19491 19495 28
15597 19496 19497 28
15598 19496 19498 28
15599 19496 19499 28
15600 19496 19500 28
15601 19501 19502 28
15602 19501 19503 28
15603 19501 19504 28
15604 19501 19505 28
15605 19506 19507 28
15606 19506 19508 28
15607 19506 19509 28
15608 19506 19510 28
15609 19511 19512 28
15610 19511 19513 28
15611 19511 19514 28
15612 19511 19515 28
15613 19516 19517 28
15614 19516 19518 28
15615 19516 19519 28
15616 19516 19520 28
15617 19521 19522 28
15618 19521 19523 28
15619 19521 19524 28
15620 19521 19525 28
15621 19526 19527 28
15622 19526 19528 28
15623 19526 19529 28
15624 19526 19530 28
15625 19531 19532 28
15626 19531 19533 28
15627 19531 19534 28
15628 19531 19535 28
15629 19536 19537 28
15630 19536 19538 28
15631 19536 19539 28
15632 19536 19540 28
15633 19541 19542 28
15634 19541 19543 28
15635 19541 19544 28
15636 19541 19545 28
15637 19546 19547 28
15638 19546 19548 28
15639 19546 19549 28
15640 19546 19550 28
15641 19551 19552 28
15642 19551 19553 28
15643 19551 19554 28
15644 19551 19555 28
15645 19556 19557 28
15646 19556 19558 28
15647 19556 19559 28
15648 19556 19560 28
15649 19561 19562 28
15650 19561 19563 28
15651 19561 19564 28
15652 19561 19565 28
15653 19566 19567 28
15654 19566 19568 28
15655 19566 19569 28
15656 19566 19570 28
15657 19571 19572 28
15658 19571 19573 28
15659 19571 19574 28
15660 19571 19575 28
15661 19576 19577 28
15662 19576 19578 28
15663 19576 19579 28
15664 19576 19580 28
15665 19581 19582 28
15666 19581 19583 28
15667 19581 19584 28
15668 19581 19585 28
15669 19586 19587 28
15670 19586 19588 28
15671 19586 19589 28
15672 19586 19590 28
15673 19591 19592 28
15674 19591 19593 28
15675 19591 19594 28
15676 19591 19595 28
15677 19596 19597 28
15678 19596 19598 28
15679 19596 19599 28
15680 19596 19600 28
15681 19601 19602 28
15682 19601 19603 28
15683 19601 19604 28
15684 19601 19605 28
15685 19606 19607 28
15686 19606 19608 28
15687 19606 19609 28
15688 19606 19610 28
15689 19611 19612 28
15690 19611 19613 28
15691 19611 19614 28
15692 19611 19615 28
15693 19616 19617 28
15694 19616 19618 28
15695 19616 19619 28
15696 19616 19620 28
15697 19621 19622 28
15698 19621 19623 28
15699 19621 19624 28
15700 19621 19625 28
15701 19626 19627 28
15702 19626 19628 28
15703 19626 19629 28
15704 19626 19630 28
15705 19631 19632 28
15706 19631 19633 28
15707 19631 19634 28
15708 19631 19635 28
15709 19636 19637 28
15710 19636 19638 28
15711 19636 19639 28
15712 19636 19640 28
15713 19641 19642 28
15714 19641 19643 28
15715 19641 19644 28
15716 19641 19645 28
15717 19646 19647 28
15718 19646 19648 28
15719 19646 19649 28
15720 19646 19650 28
15721 19651 19652 28
15722 19651 19653 28
15723 19651 19654 28
15724 19651 19655 28
15725 19656 19657 28
15726 19656 19658 28
15727 19656 19659 28
15728 19656 19660 28
15729 19661 19662 28
15730 19661 19663 28
15731 19661 19664 28
15732 19661 19665 28
15733 19666 19667 28
15734 19666 19668 28
15735 19666 19669 28
15736 19666 19670 28
15737 19671 19672 28
15738 19671 19673 28
15739 19671 19674 28
15740 19671 19675 28
15741 19676 19677 28
15742 19676 19678 28
15743 19676 19679 28
15744 19676 19680 28
15745 19681 19682 28
15746 19681 19683 28
15747 19681 19684 28
15748 19681 19685 28
15749 19686 19687 28
15750 19686 19688 28
15751 19686 19689 28
15752 19686 19690 28
15753 19691 19692 28
15754 19691 19693 28
15755 19691 19694 28
15756 19691 19695 28
15757 19696 19697 28
15758 19696 19698 28
15759 19696 19699 28
15760 19696 19700 28
15761 19701 19702 28
15762 19701 19703 28
15763 19701 19704 28
15764 19701 19705 28
15765 19706 19707 28
15766 19706 19708 28
15767 19706 19709 28
15768 19706 19710 28
15769 19711 19712 28
15770 19711 19713 28
15771 19711 19714 28
15772 19711 19715 28
15773 19716 19717 28
15774 19716 19718 28
15775 19716 19719 28
15776 19716 19720 28
15777 19721 19722 28
15778 19721 19723 28
15779 19721 19724 28
15780 19721 19725 28
15781 19726 19727 28
15782 19726 19728 28
15783 19726 19729 28
15784 19726 19730 28
15785 19731 19732 28
15786 19731 19733 28
15787 19731 19734 28
15788 19731 19735 28
15789 19736 19737 28
15790 19736 19738 28
15791 19736 19739 28
15792 19736 19740 28
15793 19741 19742 28
15794 19741 19743 28
15795 19741 19744 28
15796 19741 19745 28
15797 19746 19747 28
15798 19746 19748 28
15799 19746 19749 28
15800 19746 19750 28
15801 19751 19752 28
15802 19751 19753 28
15803 19751 19754 28
15804 19751 19755 28
15805 19756 19757 28
15806 19756 19758 28
15807 19756 19759 28
15808 19756 19760 28
15809 19761 19762 28
15810 19761 19763 28
15811 19761 19764 28
15812 19761 19765 28
15813 19766 19767 28
15814 19766 19768 28
15815 19766 19769 28
15816 19766 19770 28
15817 19771 19772 28
15818 19771 19773 28
15819 19771 19774 28
15820 19771 19775 28
15821 19776 19777 28
15822 19776 19778 28
15823 19776 19779 28
15824 19776 19780 28
15825 19781 19782 28
15826 19781 19783 28
15827 19781 19784 28
15828 19781 19785 28
15829 19786 19787 28
15830 19786 19788 28
15831 19786 19789 28
15832 19786 19790 28
15833 19791 19792 28
15834 19791 19793 28
15835 19791 19794 28
15836 19791 19795 28
15837 19796 19797 28
15838 19796 19798 28
15839 19796 19799 28
15840 19796 19800 28
15841 19801 19802 28
15842 19801 19803 28
15843 19801 19804 28
15844 19801 19805 28
15845 19806 19807 28
15846 19806 19808 28
15847 19806 19809 28
15848 19806 19810 28
15849 19811 19812 28
15850 19811 19813 28
15851 19811 19814 28
15852 19811 19815 28
15853 19816 19817 28
15854 19816 19818 28
15855 19816 19819 28
15856 19816 19820 28
15857 19821 19822 28
15858 19821 19823 28
15859 19821 19824 28
15860 19821 19825 28
15861 19826 19827 28
15862 19826 19828 28
15863 19826 19829 28
15864 19826 19830 28
15865 19831 19832 28
15866 19831 19833 28
15867 19831 19834 28
15868 19831 19835 28
15869 19836 19837 28
15870 19836 19838 28
15871 19836 19839 28
15872 19836 19840 28
15873 19841 19842 28
15874 19841 19843 28
15875 19841 19844 28
15876 19841 19845 28
15877 19846 19847 28
15878 19846 19848 28
15879 19846 19849 28
15880 19846 19850 28
15881 19851 19852 28
15882 19851 19853 28
15883 19851 19854 28
15884 19851 19855 28
15885 19856 19857 28
15886 19856 19858 28
15887 19856 19859 28
15888 19856 19860 28
15889 19861 19862 28
15890 19861 19863 28
15891 19861 19864 28
15892 19861 19865 28
15893 19866 19867 28
15894 19866 19868 28
15895 19866 19869 28
15896 19866 19870 28
15897 19871 19872 28
15898 19871 19873 28
15899 19871 19874 28
15900 19871 19875 28
15901 19876 19877 28
15902 19876 19878 28
15903 19876 19879 28
15904 19876 19880 28
15905 19881 19882 28
15906 19881 19883 28
15907 19881 19884 28
15908 19881 19885 28
15909 19886 19887 28
15910 19886 19888 28
15911 19886 19889 28
15912 19886 19890 28
15913 19891 19892 28
15914 19891 19893 28
15915 19891 19894 28
15916 19891 19895 28
15917 19896 19897 28
15918 19896 19898 28
15919 19896 19899 28
15920 19896 19900 28
15921 19901 19902 28
15922 19901 19903 28
15923 19901 19904 28
15924 19901 19905 28
15925 19906 19907 28
15926 19906 19908 28
15927 19906 19909 28
15928 19906 19910 28
15929 19911 19912 28
15930 19911 19913 28
15931 19911 19914 28
15932 19911 19915 28
15933 19916 19917 28
15934 19916 19918 28
15935 19916 19919 28
15936 19916 19920 28
15937 19921 19922 28
15938 19921 19923 28
15939 19921 19924 28
15940 19921 19925 28
15941 19926 19927 28
15942 19926 19928 28
15943 19926 19929 28
15944 19926 19930 28
15945 19931 19932 28
15946 19931 19933 28
15947 19931 19934 28
15948 19931 19935 28
15949 19936 19937 28
15950 19936 19938 28
15951 19936 19939 28
15952 19936 19940 28
15953 19941 19942 28
15954 19941 19943 28
15955 19941 19944 28
15956 19941 19945 28
15957 19946 19947 28
15958 19946 19948 28
15959 19946 19949 28
15960 19946 19950 28
15961 19951 19952 28
15962 19951 19953 28
15963 19951 19954 28
15964 19951 19955 28
15965 19956 19957 28
15966 19956 19958 28
15967 19956 19959 28
15968 19956 19960 28
15969 19961 19962 28
15970 19961 19963 28
15971 19961 19964 28
15972 19961 19965 28
15973 19966 19967 28
15974 19966 19968 28
15975 19966 19969 28
15976 19966 19970 28
15977 19971 19972 28
15978 19971 19973 28
15979 19971 19974 28
15980 19971 19975 28
15981 19976 19977 28
15982 19976 19978 28
15983 19976 19979 28
15984 19976 19980 28
15985 19981 19982 28
15986 19981 19983 28
15987 19981 19984 28
15988 19981 19985 28
15989 19986 19987 28
15990 19986 19988 28
15991 19986 19989 28
15992 19986 19990 28
15993 19991 19992 28
15994 19991 19993 28
15995 19991 19994 28
15996 19991 19995 28
15997 19996 19997 28
15998 19996 19998 28
15999 19996 19999 28
16000 19996 20000 28
16001 20001 20002 28
16002 20001 20003 28
16003 20001 20004 28
16004 20001 20005 28
16005 20006 20007 28
16006 20006 20008 28
16007 20006 20009 28
16008 20006 20010 28
16009 20011 20012 28
16010 20011 20013 28
16011 20011 20014 28
16012 20011 20015 28
16013 20016 20017 28
16014 20016 20018 28
16015 20016 20019 28
16016 20016 20020 28
16017 20021 20022 28
16018 20021 20023 28
16019 20021 20024 28
16020 20021 20025 28
16021 20026 20027 28
16022 20026 20028 28
16023 20026 20029 28
16024 20026 20030 28
16025 20031 20032 28
16026 20031 20033 28
16027 20031 20034 28
16028 20031 20035 28
16029 20036 20037 28
16030 20036 20038 28
16031 20036 20039 28
16032 20036 20040 28
16033 20041 20042 28
16034 20041 20043 28
16035 20041 20044 28
16036 20041 20045 28
16037 20046 20047 28
16038 20046 20048 28
16039 20046 20049 28
16040 20046 20050 28
16041 20051 20052 28
16042 20051 20053 28
16043 20051 20054 28
16044 20051 20055 28
16045 20056 20057 28
16046 20056 20058 28
16047 20056 20059 28
16048 20056 20060 28
16049 20061 20062 28
16050 20061 20063 28
16051 20061 20064 28
16052 20061 20065 28
16053 20066 20067 28
16054 20066 20068 28
16055 20066 20069 28
16056 20066 20070 28
16057 20071 20072 28
16058 20071 20073 28
16059 20071 20074 28
16060 20071 20075 28
16061 20076 20077 28
16062 20076 20078 28
16063 20076 20079 28
16064 20076 20080 28
16065 20081 20082 28
16066 20081 20083 28
16067 20081 20084 28
16068 20081 20085 28
16069 20086 20087 28
16070 20086 20088 28
16071 20086 20089 28
16072 20086 20090 28
16073 20091 20092 28
16074 20091 20093 28
16075 20091 20094 28
16076 20091 20095 28
16077 20096 20097 28
16078 20096 20098 28
16079 20096 20099 28
16080 20096 20100 28
16081 20101 20102 28
16082 20101 20103 28
16083 20101 20104 28
16084 20101 20105 28
16085 20106 20107 28
16086 20106 20108 28
16087 20106 20109 28
16088 20106 20110 28
16089 20111 20112 28
16090 20111 20113 28
16091 20111 20114 28
16092 20111 20115 28
16093 20116 20117 28
16094 20116 20118 28
16095 20116 20119 28
16096 20116 20120 28
16097 20121 20122 28
16098 20121 20123 28
16099 20121 20124 28
16100 20121 20125 28
16101 20126 20127 28
16102 20126 20128 28
16103 20126 20129 28
16104 20126 20130 28
16105 20131 20132 28
16106 20131 20133 28
16107 20131 20134 28
16108 20131 20135 28
16109 20136 20137 28
16110 20136 20138 28
16111 20136 20139 28
16112 20136 20140 28
16113 20141 20142 28
16114 20141 20143 28
16115 20141 20144 28
16116 20141 20145 28
16117 20146 20147 28
16118 20146 20148 28
16119 20146 20149 28
16120 20146 20150 28
16121 20151 20152 28
16122 20151 20153 28
16123 20151 20154 28
16124 20151 20155 28
16125 20156 20157 28
16126 20156 20158 28
16127 20156 20159 28
16128 20156 20160 28
16129 20161 20162 28
16130 20161 20163 28
16131 20161 20164 28
16132 20161 20165 28
16133 20166 20167 28
16134 20166 20168 28
16135 20166 20169 28
16136 20166 20170 28
16137 20171 20172 28
16138 20171 20173 28
16139 20171 20174 28
16140 20171 20175 28
16141 20176 20177 28
16142 20176 20178 28
16143 20176 20179 28
16144 20176 20180 28
16145 20181 20182 28
16146 20181 20183 28
16147 20181 20184 28
16148 20181 20185 28
16149 20186 20187 28
16150 20186 20188 28
16151 20186 20189 28
16152 20186 20190 28
16153 20191 20192 28
16154 20191 20193 28
16155 20191 20194 28
16156 20191 20195 28
16157 20196 20197 28
16158 20196 20198 28
16159 20196 20199 28
16160 20196 20200 28
16161 20201 20202 28
16162 20201 20203 28
16163 20201 20204 28
16164 20201 20205 28
16165 20206 20207 28
16166 20206 20208 28
16167 20206 20209 28
16168 20206 20210 28
16169 20211 20212 28
16170 20211 20213 28
16171 20211 20214 28
16172 20211 20215 28
16173 20216 20217 28
16174 20216 20218 28
16175 20216 20219 28
16176 20216 20220 28
16177 20221 20222 28
16178 20221 20223 28
16179 20221 20224 28
16180 20221 20225 28
16181 20226 20227 28
16182 20226 20228 28
16183 20226 20229 28
16184 20226 20230 28
16185 20231 20232 28
16186 20231 20233 28
16187 20231 20234 28
16188 20231 20235 28
16189 20236 20237 28
16190 20236 20238 28
16191 20236 20239 28
16192 20236 20240 28
16193 20241 20242 28
16194 20241 20243 28
16195 20241 20244 28
16196 20241 20245 28
16197 20246 20247 28
16198 20246 20248 28
16199 20246 20249 28
16200 20246 20250 28
16201 20251 20252 28
16202 20251 20253 28
16203 20251 20254 28
16204 20251 20255 28
16205 20256 20257 28
16206 20256 20258 28
16207 20256 20259 28
16208 20256 20260 28
16209 20261 20262 28
16210 20261 20263 28
16211 20261 20264 28
16212 20261 20265 28
16213 20266 20267 28
16214 20266 20268 28
16215 20266 20269 28
16216 20266 20270 28
16217 20271 20272 28
16218 20271 20273 28
16219 20271 20274 28
16220 20271 20275 28
16221 20276 20277 28
16222 20276 20278 28
16223 20276 20279 28
16224 20276 20280 28
16225 20281 20282 28
16226 20281 20283 28
16227 20281 20284 28
16228 20281 20285 28
16229 20286 20287 28
16230 20286 20288 28
16231 20286 20289 28
16232 20286 20290 28
16233 20291 20292 28
16234 20291 20293 28
16235 20291 20294 28
16236 20291 20295 28
16237 20296 20297 28
16238 20296 20298 28
16239 20296 20299 28
16240 20296 20300 28
16241 20301 20302 28
16242 20301 20303 28
16243 20301 20304 28
16244 20301 20305 28
16245 20306 20307 28
16246 20306 20308 28
16247 20306 20309 28
16248 20306 20310 28
16249 20311 20312 28
16250 20311 20313 28
16251 20311 20314 28
16252 20311 20315 28
16253 20316 20317 28
16254 20316 20318 28
16255 20316 20319 28
16256 20316 20320 28
16257 20321 20322 28
16258 20321 20323 28
16259 20321 20324 28
16260 20321 20325 28
16261 20326 20327 28
16262 20326 20328 28
16263 20326 20329 28
16264 20326 20330 28
16265 20331 20332 28
16266 20331 20333 28
16267 20331 20334 28
16268 20331 20335 28
16269 20336 20337 28
16270 20336 20338 28
16271 20336 20339 28
16272 20336 20340 28
16273 20341 20342 28
16274 20341 20343 28
16275 20341 20344 28
16276 20341 20345 28
16277 20346 20347 28
16278 20346 20348 28
16279 20346 20349 28
16280 20346 20350 28
16281 20351 20352 28
16282 20351 20353 28
16283 20351 20354 28
16284 20351 20355 28
16285 20356 20357 28
16286 20356 20358 28
16287 20356 20359 28
16288 20356 20360 28
16289 20361 20362 28
16290 20361 20363 28
16291 20361 20364 28
16292 20361 20365 28
16293 20366 20367 28
16294 20366 20368 28
16295 20366 20369 28
16296 20366 20370 28
16297 20371 20372 28
16298 20371 20373 28
16299 20371 20374 28
16300 20371 20375 28
16301 20376 20377 28
16302 20376 20378 28
16303 20376 20379 28
16304 20376 20380 28
16305 20381 20382 28
16306 20381 20383 28
16307 20381 20384 28
16308 20381 20385 28
16309 20386 20387 28
16310 20386 20388 28
16311 20386 20389 28
16312 20386 20390 28
16313 20391 20392 28
16314 20391 20393 28
16315 20391 20394 28
16316 20391 20395 28
16317 20396 20397 28
16318 20396 20398 28
16319 20396 20399 28
16320 20396 20400 28
16321 20401 20402 28
16322 20401 20403 28
16323 20401 20404 28
16324 20401 20405 28
16325 20406 20407 28
16326 20406 20408 28
16327 20406 20409 28
16328 20406 20410 28
16329 20411 20412 28
16330 20411 20413 28
16331 20411 20414 28
16332 20411 20415 28
16333 20416 20417 28
16334 20416 20418 28
16335 20416 20419 28
16336 20416 20420 28
16337 20421 20422 28
16338 20421 20423 28
16339 20421 20424 28
16340 20421 20425 28
16341 20426 20427 28
16342 20426 20428 28
16343 20426 20429 28
16344 20426 20430 28
16345 20431 20432 28
16346 20431 20433 28
16347 20431 20434 28
16348 20431 20435 28
16349 20436 20437 28
16350 20436 20438 28
16351 20436 20439 28
16352 20436 20440 28
16353 20441 20442 28
16354 20441 20443 28
16355 20441 20444 28
16356 20441 20445 28
16357 20446 20447 28
16358 20446 20448 28
16359 20446 20449 28
16360 20446 20450 28
16361 20451 20452 28
16362 20451 20453 28
16363 20451 20454 28
16364 20451 20455 28
16365 20456 20457 28
16366 20456 20458 28
16367 20456 20459 28
16368 20456 20460 28
16369 20461 20462 28
16370 20461 20463 28
16371 20461 20464 28
16372 20461 20465 28
16373 20466 20467 28
16374 20466 20468 28
16375 20466 20469 28
16376 20466 20470 28
16377 20471 20472 28
16378 20471 20473 28
16379 20471 20474 28
16380 20471 20475 28
16381 20476 20477 28
16382 20476 20478 28
16383 20476 20479 28
16384 20476 20480 28
16385 20481 20482 28
16386 20481 20483 28
16387 20481 20484 28
16388 20481 20485 28
16389 20486 20487 28
16390 20486 20488 28
16391 20486 20489 28
16392 20486 20490 28
16393 20491 20492 28
16394 20491 20493 28
16395 20491 20494 28
16396 20491 20495 28
16397 20496 20497 28
16398 20496 20498 28
16399 20496 20499 28
16400 20496 20500 28
16401 20501 20502 28
16402 20501 20503 28
16403 20501 20504 28
16404 20501 20505 28
16405 20506 20507 28
16406 20506 20508 28
16407 20506 20509 28
16408 20506 20510 28
16409 20511 20512 28
16410 20511 20513 28
16411 20511 20514 28
16412 20511 20515 28
16413 20516 20517 28
16414 20516 20518 28
16415 20516 20519 28
16416 20516 20520 28
16417 20521 20522 28
16418 20521 20523 28
16419 20521 20524 28
16420 20521 20525 28
16421 20526 20527 28
16422 20526 20528 28
16423 20526 20529 28
16424 20526 20530 28
16425 20531 20532 28
16426 20531 20533 28
16427 20531 20534 28
16428 20531 20535 28
16429 20536 20537 28
16430 20536 20538 28
16431 20536 20539 28
16432 20536 20540 28
16433 20541 20542 28
16434 20541 20543 28
16435 20541 20544 28
16436 20541 20545 28
16437 20546 20547 28
16438 20546 20548 28
16439 20546 20549 28
16440 20546 20550 28
16441 20551 20552 28
16442 20551 20553 28
16443 20551 20554 28
16444 20551 20555 28
16445 20556 20557 28
16446 20556 20558 28
16447 20556 20559 28
16448 20556 20560 28
16449 20561 20562 28
16450 20561 20563 28
16451 20561 20564 28
16452 20561 20565 28
16453 20566 20567 28
16454 20566 20568 28
16455 20566 20569 28
16456 20566 20570 28
16457 20571 20572 28
16458 20571 20573 28
16459 20571 20574 28
16460 20571 20575 28
16461 20576 20577 28
16462 20576 20578 28
16463 20576 20579 28
16464 20576 20580 28
16465 20581 20582 28
16466 20581 20583 28
16467 20581 20584 28
16468 20581 20585 28
16469 20586 20587 28
16470 20586 20588 28
16471 20586 20589 28
16472 20586 20590 28
16473 20591 20592 28
16474 20591 20593 28
16475 20591 20594 28
16476 20591 20595 28
16477 20596 20597 28
16478 20596 20598 28
16479 20596 20599 28
16480 20596 20600 28
16481 20601 20602 28
16482 20601 20603 28
16483 20601 20604 28
16484 20601 20605 28
16485 20606 20607 28
16486 20606 20608 28
16487 20606 20609 28
16488 20606 20610 28
16489 20611 20612 28
16490 20611 20613 28
16491 20611 20614 28
16492 20611 20615 28
16493 20616 20617 28
16494 20616 20618 28
16495 20616 20619 28
16496 20616 20620 28
16497 20621 20622 28
16498 20621 20623 28
16499 20621 20624 28
16500 20621 20625 28
16501 20626 20627 28
16502 20626 20628 28
16503 20626 20629 28
16504 20626 20630 28
16505 20631 20632 28
16506 20631 20633 28
16507 20631 20634 28
16508 20631 20635 28
16509 20636 20637 28
16510 20636 20638 28
16511 20636 20639 28
16512 20636 20640 28
16513 20641 20642 28
16514 20641 20643 28
16515 20641 20644 28
16516 20641 20645 28
16517 20646 20647 28
16518 20646 20648 28
16519 20646 20649 28
16520 20646 20650 28
16521 20651 20652 28
16522 20651 20653 28
16523 20651 20654 28
16524 20651 20655 28
16525 20656 20657 28
16526 20656 20658 28
16527 20656 20659 28
16528 20656 20660 28
16529 20661 20662 28
16530 20661 20663 28
16531 20661 20664 28
16532 20661 20665 28
16533 20666 20667 28
16534 20666 20668 28
16535 20666 20669 28
16536 20666 20670 28
16537 20671 20672 28
16538 20671 20673 28
16539 20671 20674 28
16540 20671 20675 28
16541 20676 20677 28
16542 20676 20678 28
16543 20676 20679 28
16544 20676 20680 28
16545 20681 20682 28
16546 20681 20683 28
16547 20681 20684 28
16548 20681 20685 28
16549 20686 20687 28
16550 20686 20688 28
16551 20686 20689 28
16552 20686 20690 28
16553 20691 20692 28
16554 20691 20693 28
16555 20691 20694 28
16556 20691 20695 28
16557 20696 20697 28
16558 20696 20698 28
16559 20696 20699 28
16560 20696 20700 28
16561 20701 20702 28
16562 20701 20703 28
16563 20701 20704 28
16564 20701 20705 28
16565 20706 20707 28
16566 20706 20708 28
16567 20706 20709 28
16568 20706 20710 28
16569 20711 20712 28
16570 20711 20713 28
16571 20711 20714 28
16572 20711 20715 28
16573 20716 20717 28
16574 20716 20718 28
16575 20716 20719 28
16576 20716 20720 28
16577 20721 20722 28
16578 20721 20723 28
16579 20721 20724 28
16580 20721 20725 28
16581 20726 20727 28
16582 20726 20728 28
16583 20726 20729 28
16584 20726 20730 28
16585 20731 20732 28
16586 20731 20733 28
16587 20731 20734 28
16588 20731 20735 28
16589 20736 20737 28
16590 20736 20738 28
16591 20736 20739 28
16592 20736 20740 28
16593 20741 20742 28
16594 20741 20743 28
16595 20741 20744 28
16596 20741 20745 28
16597 20746 20747 28
16598 20746 20748 28
16599 20746 20749 28
16600 20746 20750 28
16601 20751 20752 28
16602 20751 20753 28
16603 20751 20754 28
16604 20751 20755 28
16605 20756 20757 28
16606 20756 20758 28
16607 20756 20759 28
16608 20756 20760 28
16609 20761 20762 28
16610 20761 20763 28
16611 20761 20764 28
16612 20761 20765 28
16613 20766 20767 28
16614 20766 20768 28
16615 20766 20769 28
16616 20766 20770 28
16617 20771 20772 28
16618 20771 20773 28
16619 20771 20774 28
16620 20771 20775 28
16621 20776 20777 28
16622 20776 20778 28
16623 20776 20779 28
16624 20776 20780 28
16625 20781 20782 28
16626 20781 20783 28
16627 20781 20784 28
16628 20781 20785 28
16629 20786 20787 28
16630 20786 20788 28
16631 20786 20789 28
16632 20786 20790 28
16633 20791 20792 28
16634 20791 20793 28
16635 20791 20794 28
16636 20791 20795 28
16637 20796 20797 28
16638 20796 20798 28
16639 20796 20799 28
16640 20796 20800 28
16641 20801 20802 28
16642 20801 20803 28
16643 20801 20804 28
16644 20801 20805 28
16645 20806 20807 28
16646 20806 20808 28
16647 20806 20809 28
16648 20806 20810 28
16649 20811 20812 28
16650 20811 20813 28
16651 20811 20814 28
16652 20811 20815 28
16653 20816 20817 28
16654 20816 20818 28
16655 20816 20819 28
16656 20816 20820 28
16657 20821 20822 28
16658 20821 20823 28
16659 20821 20824 28
16660 20821 20825 28
16661 20826 20827 28
16662 20826 20828 28
16663 20826 20829 28
16664 20826 20830 28
16665 20831 20832 28
16666 20831 20833 28
16667 20831 20834 28
16668 20831 20835 28
16669 20836 20837 28
16670 20836 20838 28
16671 20836 20839 28
16672 20836 20840 28
16673 20841 20842 28
16674 20841 20843 28
16675 20841 20844 28
16676 20841 20845 28
16677 20846 20847 28
16678 20846 20848 28
16679 20846 20849 28
16680 20846 20850 28
16681 20851 20852 28
16682 20851 20853 28
16683 20851 20854 28
16684 20851 20855 28
16685 20856 20857 28
16686 20856 20858 28
16687 20856 20859 28
16688 20856 20860 28
16689 20861 20862 28
16690 20861 20863 28
16691 20861 20864 28
16692 20861 20865 28
16693 20866 20867 28
16694 20866 20868 28
16695 20866 20869 28
16696 20866 20870 28
16697 20871 20872 28
16698 20871 20873 28
16699 20871 20874 28
16700 20871 20875 28
16701 20876 20877 28
16702 20876 20878 28
16703 20876 20879 28
16704 20876 20880 28
16705 20881 20882 28
16706 20881 20883 28
16707 20881 20884 28
16708 20881 20885 28
16709 20886 20887 28
16710 20886 20888 28
16711 20886 20889 28
16712 20886 20890 28
16713 20891 20892 28
16714 20891 20893 28
16715 20891 20894 28
16716 20891 20895 28
16717 20896 20897 28
16718 20896 20898 28
16719 20896 20899 28
16720 20896 20900 28
16721 20901 20902 28
16722 20901 20903 28
16723 20901 20904 28
16724 20901 20905 28
16725 20906 20907 28
16726 20906 20908 28
16727 20906 20909 28
16728 20906 20910 28
16729 20911 20912 28
16730 20911 20913 28
16731 20911 20914 28
16732 20911 20915 28
16733 20916 20917 28
16734 20916 20918 28
16735 20916 20919 28
16736 20916 20920 28
16737 20921 20922 28
16738 20921 20923 28
16739 20921 20924 28
16740 20921 20925 28
16741 20926 20927 28
16742 20926 20928 28
16743 20926 20929 28
16744 20926 20930 28
16745 20931 20932 28
16746 20931 20933 28
16747 20931 20934 28
16748 20931 20935 28
16749 20936 20937 28
16750 20936 20938 28
16751 20936 20939 28
16752 20936 20940 28
16753 20941 20942 28
16754 20941 20943 28
16755 20941 20944 28
16756 20941 20945 28
16757 20946 20947 28
16758 20946 20948 28
16759 20946 20949 28
16760 20946 20950 28
16761 20951 20952 28
16762 20951 20953 28
16763 20951 20954 28
16764 20951 20955 28
16765 20956 20957 28
16766 20956 20958 28
16767 20956 20959 28
16768 20956 20960 28
16769 20961 20962 28
16770 20961 20963 28
16771 20961 20964 28
16772 20961 20965 28
16773 20966 20967 28
16774 20966 20968 28
16775 20966 20969 28
16776 20966 20970 28
16777 20971 20972 28
16778 20971 20973 28
16779 20971 20974 28
16780 20971 20975 28
16781 20976 20977 28
16782 20976 20978 28
16783 20976 20979 28
16784 20976 20980 28
16785 20981 20982 28
16786 20981 20983 28
16787 20981 20984 28
16788 20981 20985 28
16789 20986 20987 28
16790 20986 20988 28
16791 20986 20989 28
16792 20986 20990 28
16793 20991 20992 28
16794 20991 20993 28
16795 20991 20994 28
16796 20991 20995 28
16797 20996 20997 28
16798 20996 20998 28
16799 20996 20999 28
16800 20996 21000 28
16801 21001 21002 28
16802 21001 21003 28
16803 21001 21004 28
16804 21001 21005 28
16805 21006 21007 28
16806 21006 21008 28
16807 21006 21009 28
16808 21006 21010 28
16809 21011 21012 28
16810 21011 21013 28
16811 21011 21014 28
16812 21011 21015 28
16813 21016 21017 28
16814 21016 21018 28
16815 21016 21019 28
16816 21016 21020 28
16817 21021 21022 28
16818 21021 21023 28
16819 21021 21024 28
16820 21021 21025 28
16821 21026 21027 28
16822 21026 21028 28
16823 21026 21029 28
16824 21026 21030 28
16825 21031 21032 28
16826 21031 21033 28
16827 21031 21034 28
16828 21031 21035 28
16829 21036 21037 28
16830 21036 21038 28
16831 21036 21039 28
16832 21036 21040 28
16833 21041 21042 28
16834 21041 21043 28
16835 21041 21044 28
16836 21041 21045 28
16837 21046 21047 28
16838 21046 21048 28
16839 21046 21049 28
16840 21046 21050 28
16841 21051 21052 28
16842 21051 21053 28
16843 21051 21054 28
16844 21051 21055 28
16845 21056 21057 28
16846 21056 21058 28
16847 21056 21059 28
16848 21056 21060 28
16849 21061 21062 28
16850 21061 21063 28
16851 21061 21064 28
16852 21061 21065 28
16853 21066 21067 28
16854 21066 21068 28
16855 21066 21069 28
16856 21066 21070 28
16857 21071 21072 28
16858 21071 21073 28
16859 21071 21074 28
16860 21071 21075 28
16861 21076 21077 28
16862 21076 21078 28
16863 21076 21079 28
16864 21076 21080 28
16865 21081 21082 28
16866 21081 21083 28
16867 21081 21084 28
16868 21081 21085 28
16869 21086 21087 28
16870 21086 21088 28
16871 21086 21089 28
16872 21086 21090 28
16873 21091 21092 28
16874 21091 21093 28
16875 21091 21094 28
16876 21091 21095 28
16877 21096 21097 28
16878 21096 21098 28
16879 21096 21099 28
16880 21096 21100 28
16881 21101 21102 28
16882 21101 21103 28
16883 21101 21104 28
16884 21101 21105 28
16885 21106 21107 28
16886 21106 21108 28
16887 21106 21109 28
16888 21106 21110 28
16889 21111 21112 28
16890 21111 21113 28
16891 21111 21114 28
16892 21111 21115 28
16893 21116 21117 28
16894 21116 21118 28
16895 21116 21119 28
16896 21116 21120 28
16897 21121 21122 28
16898 21121 21123 28
16899 21121 21124 28
16900 21121 21125 28
16901 21126 21127 28
16902 21126 21128 28
16903 21126 21129 28
16904 21126 21130 28
16905 21131 21132 28
16906 21131 21133 28
16907 21131 21134 28
16908 21131 21135 28
16909 21136 21137 28
16910 21136 21138 28
16911 21136 21139 28
16912 21136 21140 28
16913 21141 21142 28
16914 21141 21143 28
16915 21141 21144 28
16916 21141 21145 28
16917 21146 21147 28
16918 21146 21148 28
16919 21146 21149 28
16920 21146 21150 28
16921 21151 21152 28
16922 21151 21153 28
16923 21151 21154 28
16924 21151 21155 28
16925 21156 21157 28
16926 21156 21158 28
16927 21156 21159 28
16928 21156 21160 28
16929 21161 21162 28
16930 21161 21163 28
16931 21161 21164 28
16932 21161 21165 28
16933 21166 21167 28
16934 21166 21168 28
16935 21166 21169 28
16936 21166 21170 28
16937 21171 21172 28
16938 21171 21173 28
16939 21171 21174 28
16940 21171 21175 28
16941 21176 21177 28
16942 21176 21178 28
16943 21176 21179 28
16944 21176 21180 28
16945 21181 21182 28
16946 21181 21183 28
16947 21181 21184 28
16948 21181 21185 28
16949 21186 21187 28
16950 21186 21188 28
16951 21186 21189 28
16952 21186 21190 28
16953 21191 21192 28
16954 21191 21193 28
16955 21191 21194 28
16956 21191 21195 28
16957 21196 21197 28
16958 21196 21198 28
16959 21196 21199 28
16960 21196 21200 28
16961 21201 21202 28
16962 21201 21203 28
16963 21201 21204 28
16964 21201 21205 28
16965 21206 21207 28
16966 21206 21208 28
16967 21206 21209 28
16968 21206 21210 28
16969 21211 21212 28
16970 21211 21213 28
16971 21211 21214 28
16972 21211 21215 28
16973 21216 21217 28
16974 21216 21218 28
16975 21216 21219 28
16976 21216 21220 28
16977 21221 21222 28
16978 21221 21223 28
16979 21221 21224 28
16980 21221 21225 28
16981 21226 21227 28
16982 21226 21228 28
16983 21226 21229 28
16984 21226 21230 28
16985 21231 21232 28
16986 21231 21233 28
16987 21231 21234 28
16988 21231 21235 28
16989 21236 21237 28
16990 21236 21238 28
16991 21236 21239 28
16992 21236 21240 28
16993 21241 21242 28
16994 21241 21243 28
16995 21241 21244 28
16996 21241 21245 28
16997 21246 21247 28
16998 21246 21248 28
16999 21246 21249 28
17000 21246 21250 28
17001 21251 21252 28
17002 21251 21253 28
17003 21251 21254 28
17004 21251 21255 28
17005 21256 21257 28
17006 21256 21258 28
17007 21256 21259 28
17008 21256 21260 28
17009 21261 21262 28
17010 21261 21263 28
17011 21261 21264 28
17012 21261 21265 28
17013 21266 21267 28
17014 21266 21268 28
17015 21266 21269 28
17016 21266 21270 28
17017 21271 21272 28
17018 21271 21273 28
17019 21271 21274 28
17020 21271 21275 28
17021 21276 21277 28
17022 21276 21278 28
17023 21276 21279 28
17024 21276 21280 28
17025 21281 21282 28
17026 21281 21283 28
17027 21281 21284 28
17028 21281 21285 28
17029 21286 21287 28
17030 21286 21288 28
17031 21286 21289 28
17032 21286 21290 28
17033 21291 21292 28
17034 21291 21293 28
17035 21291 21294 28
17036 21291 21295 28
17037 21296 21297 28
17038 21296 21298 28
17039 21296 21299 28
17040 21296 21300 28
17041 21301 21302 28
17042 21301 21303 28
17043 21301 21304 28
17044 21301 21305 28
17045 21306 21307 28
17046 21306 21308 28
17047 21306 21309 28
17048 21306 21310 28
17049 21311 21312 28
17050 21311 21313 28
17051 21311 21314 28
17052 21311 21315 28
17053 21316 21317 28
17054 21316 21318 28
17055 21316 21319 28
17056 21316 21320 28
17057 21321 21322 28
17058 21321 21323 28
17059 21321 21324 28
17060 21321 21325 28
17061 21326 21327 28
17062 21326 21328 28
17063 21326 21329 28
17064 21326 21330 28
17065 21331 21332 28
17066 21331 21333 28
17067 21331 21334 28
17068 21331 21335 28
17069 21336 21337 28
17070 21336 21338 28
17071 21336 21339 28
17072 21336 21340 28
17073 21341 21342 28
17074 21341 21343 28
17075 21341 21344 28
17076 21341 21345 28
17077 21346 21347 28
17078 21346 21348 28
17079 21346 21349 28
17080 21346 21350 28
17081 21351 21352 28
17082 21351 21353 28
17083 21351 21354 28
17084 21351 21355 28
17085 21356 21357 28
17086 21356 21358 28
17087 21356 21359 28
17088 21356 21360 28
17089 21361 21362 28
17090 21361 21363 28
17091 21361 21364 28
17092 21361 21365 28
17093 21366 21367 28
17094 21366 21368 28
17095 21366 21369 28
17096 21366 21370 28
17097 21371 21372 28
17098 21371 21373 28
17099 21371 21374 28
17100 21371 21375 28
17101 21376 21377 28
17102 21376 21378 28
17103 21376 21379 28
17104 21376 21380 28
17105 21381 21382 28
17106 21381 21383 28
17107 21381 21384 28
17108 21381 21385 28
17109 21386 21387 28
17110 21386 21388 28
17111 21386 21389 28
17112 21386 21390 28
17113 21391 21392 28
17114 21391 21393 28
17115 21391 21394 28
17116 21391 21395 28
17117 21396 21397 28
17118 21396 21398 28
17119 21396 21399 28
17120 21396 21400 28
17121 21401 21402 28
17122 21401 21403 28
17123 21401 21404 28
17124 21401 21405 28
17125 21406 21407 28
17126 21406 21408 28
17127 21406 21409 28
17128 21406 21410 28
17129 21411 21412 28
17130 21411 21413 28
17131 21411 21414 28
17132 21411 21415 28
17133 21416 21417 28
17134 21416 21418 28
17135 21416 21419 28
17136 21416 21420 28
17137 21421 21422 28
17138 21421 21423 28
17139 21421 21424 28
17140 21421 21425 28
17141 21426 21427 28
17142 21426 21428 28
17143 21426 21429 28
17144 21426 21430 28
17145 21431 21432 28
17146 21431 21433 28
17147 21431 21434 28
17148 21431 21435 28
17149 21436 21437 28
17150 21436 21438 28
17151 21436 21439 28
17152 21436 21440 28
17153 21441 21442 28
17154 21441 21443 28
17155 21441 21444 28
17156 21441 21445 28
17157 21446 21447 28
17158 21446 21448 28
17159 21446 21449 28
17160 21446 21450 28
17161 21451 21452 28
17162 21451 21453 28
17163 21451 21454 28
17164 21451 21455 28
17165 21456 21457 28
17166 21456 21458 28
17167 21456 21459 28
17168 21456 21460 28
17169 21461 21462 28
17170 21461 21463 28
17171 21461 21464 28
17172 21461 21465 28
17173 21466 21467 28
17174 21466 21468 28
17175 21466 21469 28
17176 21466 21470 28
17177 21471 21472 28
17178 21471 21473 28
17179 21471 21474 28
17180 21471 21475 28
17181 21476 21477 28
17182 21476 21478 28
17183 21476 21479 28
17184 21476 21480 28
17185 21481 21482 28
17186 21481 21483 28
17187 21481 21484 28
17188 21481 21485 28
17189 21486 21487 28
17190 21486 21488 28
17191 21486 21489 28
17192 21486 21490 28
17193 21491 21492 28
17194 21491 21493 28
17195 21491 21494 28
17196 21491 21495 28
17197 21496 21497 28
17198 21496 21498 28
17199 21496 21499 28
17200 21496 21500 28
17201 21501 21502 28
17202 21501 21503 28
17203 21501 21504 28
17204 21501 21505 28
17205 21506 21507 28
17206 21506 21508 28
17207 21506 21509 28
17208 21506 21510 28
17209 21511 21512 28
17210 21511 21513 28
17211 21511 21514 28
17212 21511 21515 28
17213 21516 21517 28
17214 21516 21518 28
17215 21516 21519 28
17216 21516 21520 28
17217 21521 21522 28
17218 21521 21523 28
17219 21521 21524 28
17220 21521 21525 28
17221 21526 21527 28
17222 21526 21528 28
17223 21526 21529 28
17224 21526 21530 28
17225 21531 21532 28
17226 21531 21533 28
17227 21531 21534 28
17228 21531 21535 28
17229 21536 21537 28
17230 21536 21538 28
17231 21536 21539 28
17232 21536 21540 28
17233 21541 21542 28
17234 21541 21543 28
17235 21541 21544 28
17236 21541 21545 28
17237 21546 21547 28
17238 21546 21548 28
17239 21546 21549 28
17240 21546 21550 28
17241 21551 21552 28
17242 21551 21553 28
17243 21551 21554 28
17244 21551 21555 28
17245 21556 21557 28
17246 21556 21558 28
17247 21556 21559 28
17248 21556 21560 28
17249 21561 21562 28
17250 21561 21563 28
17251 21561 21564 28
17252 21561 21565 28
17253 21566 21567 28
17254 21566 21568 28
17255 21566 21569 28
17256 21566 21570 28
17257 21571 21572 28
17258 21571 21573 28
17259 21571 21574 28
17260 21571 21575 28
17261 21576 21577 28
17262 21576 21578 28
17263 21576 21579 28
17264 21576 21580 28
17265 21581 21582 28
17266 21581 21583 28
17267 21581 21584 28
17268 21581 21585 28
17269 21586 21587 28
17270 21586 21588 28
17271 21586 21589 28
17272 21586 21590 28
17273 21591 21592 28
17274 21591 21593 28
17275 21591 21594 28
17276 21591 21595 28
17277 21596 21597 28
17278 21596 21598 28
17279 21596 21599 28
17280 21596 21600 28
17281 21601 21602 28
17282 21601 21603 28
17283 21601 21604 28
17284 21601 21605 28
17285 21606 21607 28
17286 21606 21608 28
17287 21606 21609 28
17288 21606 21610 28
17289 21611 21612 28
17290 21611 21613 28
17291 21611 21614 28
17292 21611 21615 28
17293 21616 21617 28
17294 21616 21618 28
17295 21616 21619 28
17296 21616 21620 28
17297 21621 21622 28
17298 21621 21623 28
17299 21621 21624 28
17300 21621 21625 28
17301 21626 21627 28
17302 21626 21628 28
17303 21626 21629 28
17304 21626 21630 28
17305 21631 21632 28
17306 21631 21633 28
17307 21631 21634 28
17308 21631 21635 28
17309 21636 21637 28
17310 21636 21638 28
17311 21636 21639 28
17312 21636 21640 28
17313 21641 21642 28
17314 21641 21643 28
17315 21641 21644 28
17316 21641 21645 28
17317 21646 21647 28
17318 21646 21648 28
17319 21646 21649 28
17320 21646 21650 28
17321 21651 21652 28
17322 21651 21653 28
17323 21651 21654 28
17324 21651 21655 28
17325 21656 21657 28
17326 21656 21658 28
17327 21656 21659 28
17328 21656 21660 28
17329 21661 21662 28
17330 21661 21663 28
17331 21661 21664 28
17332 21661 21665 28
17333 21666 21667 28
17334 21666 21668 28
17335 21666 21669 28
17336 21666 21670 28
17337 21671 21672 28
17338 21671 21673 28
17339 21671 21674 28
17340 21671 21675 28
17341 21676 21677 28
17342 21676 21678 28
17343 21676 21679 28
17344 21676 21680 28
17345 21681 21682 28
17346 21681 21683 28
17347 21681 21684 28
17348 21681 21685 28
17349 21686 21687 28
17350 21686 21688 28
17351 21686 21689 28
17352 21686 21690 28
17353 21691 21692 28
17354 21691 21693 28
17355 21691 21694 28
17356 21691 21695 28
17357 21696 21697 28
17358 21696 21698 28
17359 21696 21699 28
17360 21696 21700 28
17361 21701 21702 28
17362 21701 21703 28
17363 21701 21704 28
17364 21701 21705 28
17365 21706 21707 28
17366 21706 21708 28
17367 21706 21709 28
17368 21706 21710 28
17369 21711 21712 28
17370 21711 21713 28
17371 21711 21714 28
17372 21711 21715 28
17373 21716 21717 28
17374 21716 21718 28
17375 21716 21719 28
17376 21716 21720 28
17377 21721 21722 28
17378 21721 21723 28
17379 21721 21724 28
17380 21721 21725 28
17381 21726 21727 28
17382 21726 21728 28
17383 21726 21729 28
17384 21726 21730 28
17385 21731 21732 28
17386 21731 21733 28
17387 21731 21734 28
17388 21731 21735 28
17389 21736 21737 28
17390 21736 21738 28
17391 21736 21739 28
17392 21736 21740 28
17393 21741 21742 28
17394 21741 21743 28
17395 21741 21744 28
17396 21741 21745 28
17397 21746 21747 28
17398 21746 21748 28
17399 21746 21749 28
17400 21746 21750 28
17401 21751 21752 28
17402 21751 21753 28
17403 21751 21754 28
17404 21751 21755 28
17405 21756 21757 28
17406 21756 21758 28
17407 21756 21759 28
17408 21756 21760 28
17409 21761 21762 28
17410 21761 21763 28
17411 21761 21764 28
17412 21761 21765 28
17413 21766 21767 28
17414 21766 21768 28
17415 21766 21769 28
17416 21766 21770 28
17417 21771 21772 28
17418 21771 21773 28
17419 21771 21774 28
17420 21771 21775 28
17421 21776 21777 28
17422 21776 21778 28
17423 21776 21779 28
17424 21776 21780 28
17425 21781 21782 28
17426 21781 21783 28
17427 21781 21784 28
17428 21781 21785 28
17429 21786 21787 28
17430 21786 21788 28
17431 21786 21789 28
17432 21786 21790 28
17433 21791 21792 28
17434 21791 21793 28
17435 21791 21794 28
17436 21791 21795 28
17437 21796 21797 28
17438 21796 21798 28
17439 21796 21799 28
17440 21796 21800 28
17441 21801 21802 28
17442 21801 21803 28
17443 21801 21804 28
17444 21801 21805 28
17445 21806 21807 28
17446 21806 21808 28
17447 21806 21809 28
17448 21806 21810 28
17449 21811 21812 28
17450 21811 21813 28
17451 21811 21814 28
17452 21811 21815 28
17453 21816 21817 28
17454 21816 21818 28
17455 21816 21819 28
17456 21816 21820 28
17457 21821 21822 28
17458 21821 21823 28
17459 21821 21824 28
17460 21821 21825 28
17461 21826 21827 28
17462 21826 21828 28
17463 21826 21829 28
17464 21826 21830 28
17465 21831 21832 28
17466 21831 21833 28
17467 21831 21834 28
17468 21831 21835 28
17469 21836 21837 28
17470 21836 21838 28
17471 21836 21839 28
17472 21836 21840 28
17473 21841 21842 28
17474 21841 21843 28
17475 21841 21844 28
17476 21841 21845 28
17477 21846 21847 28
17478 21846 21848 28
17479 21846 21849 28
17480 21846 21850 28
17481 21851 21852 28
17482 21851 21853 28
17483 21851 21854 28
17484 21851 21855 28
17485 21856 21857 28
17486 21856 21858 28
17487 21856 21859 28
17488 21856 21860 28
17489 21861 21862 28
17490 21861 21863 28
17491 21861 21864 28
17492 21861 21865 28
17493 21866 21867 28
17494 21866 21868 28
17495 21866 21869 28
17496 21866 21870 28
17497 21871 21872 28
17498 21871 21873 28
17499 21871 21874 28
17500 21871 21875 28
17501 21876 21877 28
17502 21876 21878 28
17503 21876 21879 28
17504 21876 21880 28
17505 21881 21882 28
17506 21881 21883 28
17507 21881 21884 28
17508 21881 21885 28
17509 21886 21887 28
17510 21886 21888 28
17511 21886 21889 28
17512 21886 21890 28
17513 21891 21892 28
17514 21891 21893 28
17515 21891 21894 28
17516 21891 21895 28
17517 21896 21897 28
17518 21896 21898 28
17519 21896 21899 28
17520 21896 21900 28
17521 21901 21902 28
17522 21901 21903 28
17523 21901 21904 28
17524 21901 21905 28
17525 21906 21907 28
17526 21906 21908 28
17527 21906 21909 28
17528 21906 21910 28
17529 21911 21912 28
17530 21911 21913 28
17531 21911 21914 28
17532 21911 21915 28
17533 21916 21917 28
17534 21916 21918 28
17535 21916 21919 28
17536 21916 21920 28
17537 21921 21922 28
17538 21921 21923 28
17539 21921 21924 28
17540 21921 21925 28
17541 21926 21927 28
17542 21926 21928 28
17543 21926 21929 28
17544 21926 21930 28
17545 21931 21932 28
17546 21931 21933 28
17547 21931 21934 28
17548 21931 21935 28
17549 21936 21937 28
17550 21936 21938 28
17551 21936 21939 28
17552 21936 21940 28
17553 21941 21942 28
17554 21941 21943 28
17555 21941 21944 28
17556 21941 21945 28
17557 21946 21947 28
17558 21946 21948 28
17559 21946 21949 28
17560 21946 21950 28
17561 21951 21952 28
17562 21951 21953 28
17563 21951 21954 28
17564 21951 21955 28
17565 21956 21957 28
17566 21956 21958 28
17567 21956 21959 28
17568 21956 21960 28
17569 21961 21962 28
17570 21961 21963 28
17571 21961 21964 28
17572 21961 21965 28
17573 21966 21967 28
17574 21966 21968 28
17575 21966 21969 28
17576 21966 21970 28
17577 21971 21972 28
17578 21971 21973 28
17579 21971 21974 28
17580 21971 21975 28
17581 21976 21977 28
17582 21976 21978 28
17583 21976 21979 28
17584 21976 21980 28
17585 21981 21982 28
17586 21981 21983 28
17587 21981 21984 28
17588 21981 21985 28
17589 21986 21987 28
17590 21986 21988 28
17591 21986 21989 28
17592 21986 21990 28
17593 21991 21992 28
17594 21991 21993 28
17595 21991 21994 28
17596 21991 21995 28
17597 21996 21997 28
17598 21996 21998 28
17599 21996 21999 28
17600 21996 22000 28
17601 22001 22002 28
17602 22001 22003 28
17603 22001 22004 28
17604 22001 22005 28
17605 22006 22007 28
17606 22006 22008 28
17607 22006 22009 28
17608 22006 22010 28
17609 22011 22012 28
17610 22011 22013 28
17611 22011 22014 28
17612 22011 22015 28
17613 22016 22017 28
17614 22016 22018 28
17615 22016 22019 28
17616 22016 22020 28
17617 22021 22022 28
17618 22021 22023 28
17619 22021 22024 28
17620 22021 22025 28
17621 22026 22027 28
17622 22026 22028 28
17623 22026 22029 28
17624 22026 22030 28
17625 22031 22032 28
17626 22031 22033 28
17627 22031 22034 28
17628 22031 22035 28
17629 22036 22037 28
17630 22036 22038 28
17631 22036 22039 28
17632 22036 22040 28
17633 22041 22042 28
17634 22041 22043 28
17635 22041 22044 28
17636 22041 22045 28
17637 22046 22047 28
17638 22046 22048 28
17639 22046 22049 28
17640 22046 22050 28
17641 22051 22052 28
17642 22051 22053 28
17643 22051 22054 28
17644 22051 22055 28
17645 22056 22057 28
17646 22056 22058 28
17647 22056 22059 28
17648 22056 22060 28
17649 22061 22062 28
17650 22061 22063 28
17651 22061 22064 28
17652 22061 22065 28
17653 22066 22067 28
17654 22066 22068 28
17655 22066 22069 28
17656 22066 22070 28
17657 22071 22072 28
17658 22071 22073 28
17659 22071 22074 28
17660 22071 22075 28
17661 22076 22077 28
17662 22076 22078 28
17663 22076 22079 28
17664 22076 22080 28
17665 22081 22082 28
17666 22081 22083 28
17667 22081 22084 28
17668 22081 22085 28
17669 22086 22087 28
17670 22086 22088 28
17671 22086 22089 28
17672 22086 22090 28
17673 22091 22092 28
17674 22091 22093 28
17675 22091 22094 28
17676 22091 22095 28
17677 22096 22097 28
17678 22096 22098 28
17679 22096 22099 28
17680 22096 22100 28
17681 22101 22102 28
17682 22101 22103 28
17683 22101 22104 28
17684 22101 22105 28
17685 22106 22107 28
17686 22106 22108 28
17687 22106 22109 28
17688 22106 22110 28
17689 22111 22112 28
17690 22111 22113 28
17691 22111 22114 28
17692 22111 22115 28
17693 22116 22117 28
17694 22116 22118 28
17695 22116 22119 28
17696 22116 22120 28
17697 22121 22122 28
17698 22121 22123 28
17699 22121 22124 28
17700 22121 22125 28
17701 22126 22127 28
17702 22126 22128 28
17703 22126 22129 28
17704 22126 22130 28
17705 22131 22132 28
17706 22131 22133 28
17707 22131 22134 28
17708 22131 22135 28
17709 22136 22137 28
17710 22136 22138 28
17711 22136 22139 28
17712 22136 22140 28
17713 22141 22142 28
17714 22141 22143 28
17715 22141 22144 28
17716 22141 22145 28
17717 22146 22147 28
17718 22146 22148 28
17719 22146 22149 28
17720 22146 22150 28
17721 22151 22152 28
17722 22151 22153 28
17723 22151 22154 28
17724 22151 22155 28
17725 22156 22157 28
17726 22156 22158 28
17727 22156 22159 28
17728 22156 22160 28
17729 22161 22162 28
17730 22161 22163 28
17731 22161 22164 28
17732 22161 22165 28
17733 22166 22167 28
17734 22166 22168 28
17735 22166 22169 28
17736 22166 22170 28
17737 22171 22172 28
17738 22171 22173 28
17739 22171 22174 28
17740 22171 22175 28
17741 22176 22177 28
17742 22176 22178 28
17743 22176 22179 28
17744 22176 22180 28
17745 22181 22182 28
17746 22181 22183 28
17747 22181 22184 28
17748 22181 22185 28
17749 22186 22187 28
17750 22186 22188 28
17751 22186 22189 28
17752 22186 22190 28
17753 22191 22192 28
17754 22191 22193 28
17755 22191 22194 28
17756 22191 22195 28
17757 22196 22197 28
17758 22196 22198 28
17759 22196 22199 28
17760 22196 22200 28
17761 22201 22202 28
17762 22201 22203 28
17763 22201 22204 28
17764 22201 22205 28
17765 22206 22207 28
17766 22206 22208 28
17767 22206 22209 28
17768 22206 22210 28
17769 22211 22212 28
17770 22211 22213 28
17771 22211 22214 28
17772 22211 22215 28
17773 22216 22217 28
17774 22216 22218 28
17775 22216 22219 28
17776 22216 22220 28
17777 22221 22222 28
17778 22221 22223 28
17779 22221 22224 28
17780 22221 22225 28
17781 22226 22227 28
17782 22226 22228 28
17783 22226 22229 28
17784 22226 22230 28
17785 22231 22232 28
17786 22231 22233 28
17787 22231 22234 28
17788 22231 22235 28
17789 22236 22237 28
17790 22236 22238 28
17791 22236 22239 28
17792 22236 22240 28
17793 22241 22242 28
17794 22241 22243 28
17795 22241 22244 28
17796 22241 22245 28
17797 22246 22247 28
17798 22246 22248 28
17799 22246 22249 28
17800 22246 22250 28
17801 22251 22252 28
17802 22251 22253 28
17803 22251 22254 28
17804 22251 22255 28
17805 22256 22257 28
17806 22256 22258 28
17807 22256 22259 28
17808 22256 22260 28
17809 22261 22262 28
17810 22261 22263 28
17811 22261 22264 28
17812 22261 22265 28
17813 22266 22267 28
17814 22266 22268 28
17815 22266 22269 28
17816 22266 22270 28
17817 22271 22272 28
17818 22271 22273 28
17819 22271 22274 28
17820 22271 22275 28
17821 22276 22277 28
17822 22276 22278 28
17823 22276 22279 28
17824 22276 22280 28
17825 22281 22282 28
17826 22281 22283 28
17827 22281 22284 28
17828 22281 22285 28
17829 22286 22287 28
17830 22286 22288 28
17831 22286 22289 28
17832 22286 22290 28
17833 22291 22292 28
17834 22291 22293 28
17835 22291 22294 28
17836 22291 22295 28
17837 22296 22297 28
17838 22296 22298 28
17839 22296 22299 28
17840 22296 22300 28
17841 22301 22302 28
17842 22301 22303 28
17843 22301 22304 28
17844 22301 22305 28
17845 22306 22307 28
17846 22306 22308 28
17847 22306 22309 28
17848 22306 22310 28
17849 22311 22312 28
17850 22311 22313 28
17851 22311 22314 28
17852 22311 22315 28
17853 22316 22317 28
17854 22316 22318 28
17855 22316 22319 28
17856 22316 22320 28
17857 22321 22322 28
17858 22321 22323 28
17859 22321 22324 28
17860 22321 22325 28
17861 22326 22327 28
17862 22326 22328 28
17863 22326 22329 28
17864 22326 22330 28
17865 22331 22332 28
17866 22331 22333 28
17867 22331 22334 28
17868 22331 22335 28
17869 22336 22337 28
17870 22336 22338 28
17871 22336 22339 28
17872 22336 22340 28
17873 22341 22342 28
17874 22341 22343 28
17875 22341 22344 28
17876 22341 22345 28
17877 22346 22347 28
17878 22346 22348 28
17879 22346 22349 28
17880 22346 22350 28
17881 22351 22352 28
17882 22351 22353 28
17883 22351 22354 28
17884 22351 22355 28
17885 22356 22357 28
17886 22356 22358 28
17887 22356 22359 28
17888 22356 22360 28
17889 22361 22362 28
17890 22361 22363 28
17891 22361 22364 28
17892 22361 22365 28
17893 22366 22367 28
17894 22366 22368 28
17895 22366 22369 28
17896 22366 22370 28
17897 22371 22372 28
17898 22371 22373 28
17899 22371 22374 28
17900 22371 22375 28
17901 22376 22377 28
17902 22376 22378 28
17903 22376 22379 28
17904 22376 22380 28
17905 22381 22382 28
17906 22381 22383 28
17907 22381 22384 28
17908 22381 22385 28
17909 22386 22387 28
17910 22386 22388 28
17911 22386 22389 28
17912 22386 22390 28
17913 22391 22392 28
17914 22391 22393 28
17915 22391 22394 28
17916 22391 22395 28
17917 22396 22397 28
17918 22396 22398 28
17919 22396 22399 28
17920 22396 22400 28
17921 22401 22402 28
17922 22401 22403 28
17923 22401 22404 28
17924 22401 22405 28
17925 22406 22407 28
17926 22406 22408 28
17927 22406 22409 28
17928 22406 22410 28
17929 22411 22412 28
17930 22411 22413 28
17931 22411 22414 28
17932 22411 22415 28
17933 22416 22417 28
17934 22416 22418 28
17935 22416 22419 28
17936 22416 22420 28
17937 22421 22422 28
17938 22421 22423 28
17939 22421 22424 28
17940 22421 22425 28
17941 22426 22427 28
17942 22426 22428 28
17943 22426 22429 28
17944 22426 22430 28
17945 22431 22432 28
17946 22431 22433 28
17947 22431 22434 28
17948 22431 22435 28
17949 22436 22437 28
17950 22436 22438 28
17951 22436 22439 28
17952 22436 22440 28
17953 22441 22442 28
17954 22441 22443 28
17955 22441 22444 28
17956 22441 22445 28
17957 22446 22447 28
17958 22446 22448 28
17959 22446 22449 28
17960 22446 22450 28
17961 22451 22452 28
17962 22451 22453 28
17963 22451 22454 28
17964 22451 22455 28
17965 22456 22457 28
17966 22456 22458 28
17967 22456 22459 28
17968 22456 22460 28
17969 22461 22462 28
17970 22461 22463 28
17971 22461 22464 28
17972 22461 22465 28
17973 22466 22467 28
17974 22466 22468 28
17975 22466 22469 28
17976 22466 22470 28
17977 22471 22472 28
17978 22471 22473 28
17979 22471 22474 28
17980 22471 22475 28
17981 22476 22477 28
17982 22476 22478 28
17983 22476 22479 28
17984 22476 22480 28
17985 22481 22482 28
17986 22481 22483 28
17987 22481 22484 28
17988 22481 22485 28
17989 22486 22487 28
17990 22486 22488 28
17991 22486 22489 28
17992 22486 22490 28
17993 22491 22492 28
17994 22491 22493 28
17995 22491 22494 28
17996 22491 22495 28
17997 22496 22497 28
17998 22496 22498 28
17999 22496 22499 28
18000 22496 22500 28
18001 22501 22502 28
18002 22501 22503 28
18003 22501 22504 28
18004 22501 22505 28
18005 22506 22507 28
18006 22506 22508 28
18007 22506 22509 28
18008 22506 22510 28
18009 22511 22512 28
18010 22511 22513 28
18011 22511 22514 28
18012 22511 22515 28
18013 22516 22517 28
18014 22516 22518 28
18015 22516 22519 28
18016 22516 22520 28
18017 22521 22522 28
18018 22521 22523 28
18019 22521 22524 28
18020 22521 22525 28
18021 22526 22527 28
18022 22526 22528 28
18023 22526 22529 28
18024 22526 22530 28
18025 22531 22532 28
18026 22531 22533 28
18027 22531 22534 28
18028 22531 22535 28
18029 22536 22537 28
18030 22536 22538 28
18031 22536 22539 28
18032 22536 22540 28
18033 22541 22542 28
18034 22541 22543 28
18035 22541 22544 28
18036 22541 22545 28
18037 22546 22547 28
18038 22546 22548 28
18039 22546 22549 28
18040 22546 22550 28
18041 22551 22552 28
18042 22551 22553 28
18043 22551 22554 28
18044 22551 22555 28
18045 22556 22557 28
18046 22556 22558 28
18047 22556 22559 28
18048 22556 22560 28
18049 22561 22562 28
18050 22561 22563 28
18051 22561 22564 28
18052 22561 22565 28
18053 22566 22567 28
18054 22566 22568 28
18055 22566 22569 28
18056 22566 22570 28
18057 22571 22572 28
18058 22571 22573 28
18059 22571 22574 28
18060 22571 22575 28
18061 22576 22577 28
18062 22576 22578 28
18063 22576 22579 28
18064 22576 22580 28
18065 22581 22582 28
18066 22581 22583 28
18067 22581 22584 28
18068 22581 22585 28
18069 22586 22587 28
18070 22586 22588 28
18071 22586 22589 28
18072 22586 22590 28
18073 22591 22592 28
18074 22591 22593 28
18075 22591 22594 28
18076 22591 22595 28
18077 22596 22597 28
18078 22596 22598 28
18079 22596 22599 28
18080 22596 22600 28
18081 22601 22602 28
18082 22601 22603 28
18083 22601 22604 28
18084 22601 22605 28
18085 22606 22607 28
18086 22606 22608 28
18087 22606 22609 28
18088 22606 22610 28
18089 22611 22612 28
18090 22611 22613 28
18091 22611 22614 28
18092 22611 22615 28
18093 22616 22617 28
18094 22616 22618 28
18095 22616 22619 28
18096 22616 22620 28
18097 22621 22622 28
18098 22621 22623 28
18099 22621 22624 28
18100 22621 22625 28
18101 22626 22627 28
18102 22626 22628 28
18103 22626 22629 28
18104 22626 22630 28
18105 22631 22632 28
18106 22631 22633 28
18107 22631 22634 28
18108 22631 22635 28
18109 22636 22637 28
18110 22636 22638 28
18111 22636 22639 28
18112 22636 22640 28
18113 22641 22642 28
18114 22641 22643 28
18115 22641 22644 28
18116 22641 22645 28
18117 22646 22647 28
18118 22646 22648 28
18119 22646 22649 28
18120 22646 22650 28
18121 22651 22652 28
18122 22651 22653 28
18123 22651 22654 28
18124 22651 22655 28
18125 22656 22657 28
18126 22656 22658 28
18127 22656 22659 28
18128 22656 22660 28
18129 22661 22662 28
18130 22661 22663 28
18131 22661 22664 28
18132 22661 22665 28
18133 22666 22667 28
18134 22666 22668 28
18135 22666 22669 28
18136 22666 22670 28
18137 22671 22672 28
18138 22671 22673 28
18139 22671 22674 28
18140 22671 22675 28
18141 22676 22677 28
18142 22676 22678 28
18143 22676 22679 28
18144 22676 22680 28
18145 22681 22682 28
18146 22681 22683 28
18147 22681 22684 28
18148 22681 22685 28
18149 22686 22687 28
18150 22686 22688 28
18151 22686 22689 28
18152 22686 22690 28
18153 22691 22692 28
18154 22691 22693 28
18155 22691 22694 28
18156 22691 22695 28
18157 22696 22697 28
18158 22696 22698 28
18159 22696 22699 28
18160 22696 22700 28
18161 22701 22702 28
18162 22701 22703 28
18163 22701 22704 28
18164 22701 22705 28
18165 22706 22707 28
18166 22706 22708 28
18167 22706 22709 28
18168 22706 22710 28
18169 22711 22712 28
18170 22711 22713 28
18171 22711 22714 28
18172 22711 22715 28
18173 22716 22717 28
18174 22716 22718 28
18175 22716 22719 28
18176 22716 22720 28
18177 22721 22722 28
18178 22721 22723 28
18179 22721 22724 28
18180 22721 22725 28
18181 22726 22727 28
18182 22726 22728 28
18183 22726 22729 28
18184 22726 22730 28
18185 22731 22732 28
18186 22731 22733 28
18187 22731 22734 28
18188 22731 22735 28
18189 22736 22737 28
18190 22736 22738 28
18191 22736 22739 28
18192 22736 22740 28
18193 22741 22742 28
18194 22741 22743 28
18195 22741 22744 28
18196 22741 22745 28
18197 22746 22747 28
18198 22746 22748 28
18199 22746 22749 28
18200 22746 22750 28
18201 22751 22752 28
18202 22751 22753 28
18203 22751 22754 28
18204 22751 22755 28
18205 22756 22757 28
18206 22756 22758 28
18207 22756 22759 28
18208 22756 22760 28
18209 22761 22762 28
18210 22761 22763 28
18211 22761 22764 28
18212 22761 22765 28
18213 22766 22767 28
18214 22766 22768 28
18215 22766 22769 28
18216 22766 22770 28
18217 22771 22772 28
18218 22771 22773 28
18219 22771 22774 28
18220 22771 22775 28
18221 22776 22777 28
18222 22776 22778 28
18223 22776 22779 28
18224 22776 22780 28
18225 22781 22782 28
18226 22781 22783 28
18227 22781 22784 28
18228 22781 22785 28
18229 22786 22787 28
18230 22786 22788 28
18231 22786 22789 28
18232 22786 22790 28
18233 22791 22792 28
18234 22791 22793 28
18235 22791 22794 28
18236 22791 22795 28
18237 22796 22797 28
18238 22796 22798 28
18239 22796 22799 28
18240 22796 22800 28
18241 22801 22802 28
18242 22801 22803 28
18243 22801 22804 28
18244 22801 22805 28
18245 22806 22807 28
18246 22806 22808 28
18247 22806 22809 28
18248 22806 22810 28
18249 22811 22812 28
18250 22811 22813 28
18251 22811 22814 28
18252 22811 22815 28
18253 22816 22817 28
18254 22816 22818 28
18255 22816 22819 28
18256 22816 22820 28
18257 22821 22822 28
18258 22821 22823 28
18259 22821 22824 28
18260 22821 22825 28
18261 22826 22827 28
18262 22826 22828 28
18263 22826 22829 28
18264 22826 22830 28
18265 22831 22832 28
18266 22831 22833 28
18267 22831 22834 28
18268 22831 22835 28
18269 22836 22837 28
18270 22836 22838 28
18271 22836 22839 28
18272 22836 22840 28
18273 22841 22842 28
18274 22841 22843 28
18275 22841 22844 28
18276 22841 22845 28
18277 22846 22847 28
18278 22846 22848 28
18279 22846 22849 28
18280 22846 22850 28
18281 22851 22852 28
18282 22851 22853 28
18283 22851 22854 28
18284 22851 22855 28
18285 22856 22857 28
18286 22856 22858 28
18287 22856 22859 28
18288 22856 22860 28
18289 22861 22862 28
18290 22861 22863 28
18291 22861 22864 28
18292 22861 22865 28
18293 22866 22867 28
18294 22866 22868 28
18295 22866 22869 28
18296 22866 22870 28
18297 22871 22872 28
18298 22871 22873 28
18299 22871 22874 28
18300 22871 22875 28
18301 22876 22877 28
18302 22876 22878 28
18303 22876 22879 28
18304 22876 22880 28
18305 22881 22882 28
18306 22881 22883 28
18307 22881 22884 28
18308 22881 22885 28
18309 22886 22887 28
18310 22886 22888 28
18311 22886 22889 28
18312 22886 22890 28
18313 22891 22892 28
18314 22891 22893 28
18315 22891 22894 28
18316 22891 22895 28
18317 22896 22897 28
18318 22896 22898 28
18319 22896 22899 28
18320 22896 22900 28
18321 22901 22902 28
18322 22901 22903 28
18323 22901 22904 28
18324 22901 22905 28
18325 22906 22907 28
18326 22906 22908 28
18327 22906 22909 28
18328 22906 22910 28
18329 22911 22912 28
18330 22911 22913 28
18331 22911 22914 28
18332 22911 22915 28
18333 22916 22917 28
18334 22916 22918 28
18335 22916 22919 28
18336 22916 22920 28
18337 22921 22922 28
18338 22921 22923 28
18339 22921 22924 28
18340 22921 22925 28
18341 22926 22927 28
18342 22926 22928 28
18343 22926 22929 28
18344 22926 22930 28
18345 22931 22932 28
18346 22931 22933 28
18347 22931 22934 28
18348 22931 22935 28
18349 22936 22937 28
18350 22936 22938 28
18351 22936 22939 28
18352 22936 22940 28
18353 22941 22942 28
18354 22941 22943 28
18355 22941 22944 28
18356 22941 22945 28
18357 22946 22947 28
18358 22946 22948 28
18359 22946 22949 28
18360 22946 22950 28
18361 22951 22952 28
18362 22951 22953 28
18363 22951 22954 28
18364 22951 22955 28
18365 22956 22957 28
18366 22956 22958 28
18367 22956 22959 28
18368 22956 22960 28
18369 22961 22962 28
18370 22961 22963 28
18371 22961 22964 28
18372 22961 22965 28
18373 22966 22967 28
18374 22966 22968 28
18375 22966 22969 28
18376 22966 22970 28
18377 22971 22972 28
18378 22971 22973 28
18379 22971 22974 28
18380 22971 22975 28
18381 22976 22977 28
18382 22976 22978 28
18383 22976 22979 28
18384 22976 22980 28
18385 22981 22982 28
18386 22981 22983 28
18387 22981 22984 28
18388 22981 22985 28
18389 22986 22987 28
18390 22986 22988 28
18391 22986 22989 28
18392 22986 22990 28
18393 22991 22992 28
18394 22991 22993 28
18395 22991 22994 28
18396 22991 22995 28
18397 22996 22997 28
18398 22996 22998 28
18399 22996 22999 28
18400 22996 23000 28
18401 23001 23002 28
18402 23001 23003 28
18403 23001 23004 28
18404 23001 23005 28
18405 23006 23007 28
18406 23006 23008 28
18407 23006 23009 28
18408 23006 23010 28
18409 23011 23012 28
18410 23011 23013 28
18411 23011 23014 28
18412 23011 23015 28
18413 23016 23017 28
18414 23016 23018 28
18415 23016 23019 28
18416 23016 23020 28
18417 23021 23022 28
18418 23021 23023 28
18419 23021 23024 28
18420 23021 23025 28
18421 23026 23027 28
18422 23026 23028 28
18423 23026 23029 28
18424 23026 23030 28
18425 23031 23032 28
18426 23031 23033 28
18427 23031 23034 28
18428 23031 23035 28
18429 23036 23037 28
18430 23036 23038 28
18431 23036 23039 28
18432 23036 23040 28
18433 23041 23042 28
18434 23041 23043 28
18435 23041 23044 28
18436 23041 23045 28
18437 23046 23047 28
18438 23046 23048 28
18439 23046 23049 28
18440 23046 23050 28
18441 23051 23052 28
18442 23051 23053 28
18443 23051 23054 28
18444 23051 23055 28
18445 23056 23057 28
18446 23056 23058 28
18447 23056 23059 28
18448 23056 23060 28
18449 23061 23062 28
18450 23061 23063 28
18451 23061 23064 28
18452 23061 23065 28
18453 23066 23067 28
18454 23066 23068 28
18455 23066 23069 28
18456 23066 23070 28
18457 23071 23072 28
18458 23071 23073 28
18459 23071 23074 28
18460 23071 23075 28
18461 23076 23077 28
18462 23076 23078 28
18463 23076 23079 28
18464 23076 23080 28
18465 23081 23082 28
18466 23081 23083 28
18467 23081 23084 28
18468 23081 23085 28
18469 23086 23087 28
18470 23086 23088 28
18471 23086 23089 28
18472 23086 23090 28
18473 23091 23092 28
18474 23091 23093 28
18475 23091 23094 28
18476 23091 23095 28
18477 23096 23097 28
18478 23096 23098 28
18479 23096 23099 28
18480 23096 23100 28
18481 23101 23102 28
18482 23101 23103 28
18483 23101 23104 28
18484 23101 23105 28
18485 23106 23107 28
18486 23106 23108 28
18487 23106 23109 28
18488 23106 23110 28
18489 23111 23112 28
18490 23111 23113 28
18491 23111 23114 28
18492 23111 23115 28
18493 23116 23117 28
18494 23116 23118 28
18495 23116 23119 28
18496 23116 23120 28
18497 23121 23122 28
18498 23121 23123 28
18499 23121 23124 28
18500 23121 23125 28
18501 23126 23127 28
18502 23126 23128 28
18503 23126 23129 28
18504 23126 23130 28
18505 23131 23132 28
18506 23131 23133 28
18507 23131 23134 28
18508 23131 23135 28
18509 23136 23137 28
18510 23136 23138 28
18511 23136 23139 28
18512 23136 23140 28
18513 23141 23142 28
18514 23141 23143 28
18515 23141 23144 28
18516 23141 23145 28
18517 23146 23147 28
18518 23146 23148 28
18519 23146 23149 28
18520 23146 23150 28
18521 23151 23152 28
18522 23151 23153 28
18523 23151 23154 28
18524 23151 23155 28
18525 23156 23157 28
18526 23156 23158 28
18527 23156 23159 28
18528 23156 23160 28
18529 23161 23162 28
18530 23161 23163 28
18531 23161 23164 28
18532 23161 23165 28
18533 23166 23167 28
18534 23166 23168 28
18535 23166 23169 28
18536 23166 23170 28
18537 23171 23172 28
18538 23171 23173 28
18539 23171 23174 28
18540 23171 23175 28
18541 23176 23177 28
18542 23176 23178 28
18543 23176 23179 28
18544 23176 23180 28
18545 23181 23182 28
18546 23181 23183 28
18547 23181 23184 28
18548 23181 23185 28
18549 23186 23187 28
18550 23186 23188 28
18551 23186 23189 28
18552 23186 23190 28
18553 23191 23192 28
18554 23191 23193 28
18555 23191 23194 28
18556 23191 23195 28
18557 23196 23197 28
18558 23196 23198 28
18559 23196 23199 28
18560 23196 23200 28
18561 23201 23202 28
18562 23201 23203 28
18563 23201 23204 28
18564 23201 23205 28
18565 23206 23207 28
18566 23206 23208 28
18567 23206 23209 28
18568 23206 23210 28
18569 23211 23212 28
18570 23211 23213 28
18571 23211 23214 28
18572 23211 23215 28
18573 23216 23217 28
18574 23216 23218 28
18575 23216 23219 28
18576 23216 23220 28
18577 23221 23222 28
18578 23221 23223 28
18579 23221 23224 28
18580 23221 23225 28
18581 23226 23227 28
18582 23226 23228 28
18583 23226 23229 28
18584 23226 23230 28
18585 23231 23232 28
18586 23231 23233 28
18587 23231 23234 28
18588 23231 23235 28
18589 23236 23237 28
18590 23236 23238 28
18591 23236 23239 28
18592 23236 23240 28
18593 23241 23242 28
18594 23241 23243 28
18595 23241 23244 28
18596 23241 23245 28
18597 23246 23247 28
18598 23246 23248 28
18599 23246 23249 28
18600 23246 23250 28
18601 23251 23252 28
18602 23251 23253 28
18603 23251 23254 28
18604 23251 23255 28
18605 23256 23257 28
18606 23256 23258 28
18607 23256 23259 28
18608 23256 23260 28
18609 23261 23262 28
18610 23261 23263 28
18611 23261 23264 28
18612 23261 23265 28
18613 23266 23267 28
18614 23266 23268 28
18615 23266 23269 28
18616 23266 23270 28
18617 23271 23272 28
18618 23271 23273 28
18619 23271 23274 28
18620 23271 23275 28
18621 23276 23277 28
18622 23276 23278 28
18623 23276 23279 28
18624 23276 23280 28
18625 23281 23282 28
18626 23281 23283 28
18627 23281 23284 28
18628 23281 23285 28
18629 23286 23287 28
18630 23286 23288 28
18631 23286 23289 28
18632 23286 23290 28
18633 23291 23292 28
18634 23291 23293 28
18635 23291 23294 28
18636 23291 23295 28
18637 23296 23297 28
18638 23296 23298 28
18639 23296 23299 28
18640 23296 23300 28
18641 23301 23302 28
18642 23301 23303 28
18643 23301 23304 28
18644 23301 23305 28
18645 23306 23307 28
18646 23306 23308 28
18647 23306 23309 28
18648 23306 23310 28
18649 23311 23312 28
18650 23311 23313 28
18651 23311 23314 28
18652 23311 23315 28
18653 23316 23317 28
18654 23316 23318 28
18655 23316 23319 28
18656 23316 23320 28
18657 23321 23322 28
18658 23321 23323 28
18659 23321 23324 28
18660 23321 23325 28
18661 23326 23327 28
18662 23326 23328 28
18663 23326 23329 28
18664 23326 23330 28
18665 23331 23332 28
18666 23331 23333 28
18667 23331 23334 28
18668 23331 23335 28
18669 23336 23337 28
18670 23336 23338 28
18671 23336 23339 28
18672 23336 23340 28
18673 23341 23342 28
18674 23341 23343 28
18675 23341 23344 28
18676 23341 23345 28
18677 23346 23347 28
18678 23346 23348 28
18679 23346 23349 28
18680 23346 23350 28
18681 23351 23352 28
18682 23351 23353 28
18683 23351 23354 28
18684 23351 23355 28
18685 23356 23357 28
18686 23356 23358 28
18687 23356 23359 28
18688 23356 23360 28
18689 23361 23362 28
18690 23361 23363 28
18691 23361 23364 28
18692 23361 23365 28
18693 23366 23367 28
18694 23366 23368 28
18695 23366 23369 28
18696 23366 23370 28
18697 23371 23372 28
18698 23371 23373 28
18699 23371 23374 28
18700 23371 23375 28
18701 23376 23377 28
18702 23376 23378 28
18703 23376 23379 28
18704 23376 23380 28
18705 23381 23382 28
18706 23381 23383 28
18707 23381 23384 28
18708 23381 23385 28
18709 23386 23387 28
18710 23386 23388 28
18711 23386 23389 28
18712 23386 23390 28
18713 23391 23392 28
18714 23391 23393 28
18715 23391 23394 28
18716 23391 23395 28
18717 23396 23397 28
18718 23396 23398 28
18719 23396 23399 28
18720 23396 23400 28
18721 23401 23402 28
18722 23401 23403 28
18723 23401 23404 28
18724 23401 23405 28
18725 23406 23407 28
18726 23406 23408 28
18727 23406 23409 28
18728 23406 23410 28
18729 23411 23412 28
18730 23411 23413 28
18731 23411 23414 28
18732 23411 23415 28
18733 23416 23417 28
18734 23416 23418 28
18735 23416 23419 28
18736 23416 23420 28
18737 23421 23422 28
18738 23421 23423 28
18739 23421 23424 28
18740 23421 23425 28
18741 23426 23427 28
18742 23426 23428 28
18743 23426 23429 28
18744 23426 23430 28
18745 23431 23432 28
18746 23431 23433 28
18747 23431 23434 28
18748 23431 23435 28
18749 23436 23437 28
18750 23436 23438 28
18751 23436 23439 28
18752 23436 23440 28
18753 23441 23442 28
18754 23441 23443 28
18755 23441 23444 28
18756 23441 23445 28
18757 23446 23447 28
18758 23446 23448 28
18759 23446 23449 28
18760 23446 23450 28
18761 23451 23452 28
18762 23451 23453 28
18763 23451 23454 28
18764 23451 23455 28
18765 23456 23457 28
18766 23456 23458 28
18767 23456 23459 28
18768 23456 23460 28
18769 23461 23462 28
18770 23461 23463 28
18771 23461 23464 28
18772 23461 23465 28
18773 23466 23467 28
18774 23466 23468 28
18775 23466 23469 28
18776 23466 23470 28
18777 23471 23472 28
18778 23471 23473 28
18779 23471 23474 28
18780 23471 23475 28
18781 23476 23477 28
18782 23476 23478 28
18783 23476 23479 28
18784 23476 23480 28
18785 23481 23482 28
18786 23481 23483 28
18787 23481 23484 28
18788 23481 23485 28
18789 23486 23487 28
18790 23486 23488 28
18791 23486 23489 28
18792 23486 23490 28
18793 23491 23492 28
18794 23491 23493 28
18795 23491 23494 28
18796 23491 23495 28
18797 23496 23497 28
18798 23496 23498 28
18799 23496 23499 28
18800 23496 23500 28
18801 23501 23502 28
18802 23501 23503 28
18803 23501 23504 28
18804 23501 23505 28
18805 23506 23507 28
18806 23506 23508 28
18807 23506 23509 28
18808 23506 23510 28
18809 23511 23512 28
18810 23511 23513 28
18811 23511 23514 28
18812 23511 23515 28
18813 23516 23517 28
18814 23516 23518 28
18815 23516 23519 28
18816 23516 23520 28
18817 23521 23522 28
18818 23521 23523 28
18819 23521 23524 28
18820 23521 23525 28
18821 23526 23527 28
18822 23526 23528 28
18823 23526 23529 28
18824 23526 23530 28
18825 23531 23532 28
18826 23531 23533 28
18827 23531 23534 28
18828 23531 23535 28
18829 23536 23537 28
18830 23536 23538 28
18831 23536 23539 28
18832 23536 23540 28
18833 23541 23542 28
18834 23541 23543 28
18835 23541 23544 28
18836 23541 23545 28
18837 23546 23547 28
18838 23546 23548 28
18839 23546 23549 28
18840 23546 23550 28
18841 23551 23552 28
18842 23551 23553 28
18843 23551 23554 28
18844 23551 23555 28
18845 23556 23557 28
18846 23556 23558 28
18847 23556 23559 28
18848 23556 23560 28
18849 23561 23562 28
18850 23561 23563 28
18851 23561 23564 28
18852 23561 23565 28
18853 23566 23567 28
18854 23566 23568 28
18855 23566 23569 28
18856 23566 23570 28
18857 23571 23572 28
18858 23571 23573 28
18859 23571 23574 28
18860 23571 23575 28
18861 23576 23577 28
18862 23576 23578 28
18863 23576 23579 28
18864 23576 23580 28
18865 23581 23582 28
18866 23581 23583 28
18867 23581 23584 28
18868 23581 23585 28
18869 23586 23587 28
18870 23586 23588 28
18871 23586 23589 28
18872 23586 23590 28
18873 23591 23592 28
18874 23591 23593 28
18875 23591 23594 28
18876 23591 23595 28
18877 23596 23597 28
18878 23596 23598 28
18879 23596 23599 28
18880 23596 23600 28
18881 23601 23602 28
18882 23601 23603 28
18883 23601 23604 28
18884 23601 23605 28
18885 23606 23607 28
18886 23606 23608 28
18887 23606 23609 28
18888 23606 23610 28
18889 23611 23612 28
18890 23611 23613 28
18891 23611 23614 28
18892 23611 23615 28
18893 23616 23617 28
18894 23616 23618 28
18895 23616 23619 28
18896 23616 23620 28
18897 23621 23622 28
18898 23621 23623 28
18899 23621 23624 28
18900 23621 23625 28
18901 23626 23627 28
18902 23626 23628 28
18903 23626 23629 28
18904 23626 23630 28
18905 23631 23632 28
18906 23631 23633 28
18907 23631 23634 28
18908 23631 23635 28
18909 23636 23637 28
18910 23636 23638 28
18911 23636 23639 28
18912 23636 23640 28
18913 23641 23642 28
18914 23641 23643 28
18915 23641 23644 28
18916 23641 23645 28
18917 23646 23647 28
18918 23646 23648 28
18919 23646 23649 28
18920 23646 23650 28
18921 23651 23652 28
18922 23651 23653 28
18923 23651 23654 28
18924 23651 23655 28
18925 23656 23657 28
18926 23656 23658 28
18927 23656 23659 28
18928 23656 23660 28
18929 23661 23662 28
18930 23661 23663 28
18931 23661 23664 28
18932 23661 23665 28
18933 23666 23667 28
18934 23666 23668 28
18935 23666 23669 28
18936 23666 23670 28
18937 23671 23672 28
18938 23671 23673 28
18939 23671 23674 28
18940 23671 23675 28
18941 23676 23677 28
18942 23676 23678 28
18943 23676 23679 28
18944 23676 23680 28
18945 23681 23682 28
18946 23681 23683 28
18947 23681 23684 28
18948 23681 23685 28
18949 23686 23687 28
18950 23686 23688 28
18951 23686 23689 28
18952 23686 23690 28
18953 23691 23692 28
18954 23691 23693 28
18955 23691 23694 28
18956 23691 23695 28
18957 23696 23697 28
18958 23696 23698 28
18959 23696 23699 28
18960 23696 23700 28
18961 23701 23702 28
18962 23701 23703 28
18963 23701 23704 28
18964 23701 23705 28
18965 23706 23707 28
18966 23706 23708 28
18967 23706 23709 28
18968 23706 23710 28
18969 23711 23712 28
18970 23711 23713 28
18971 23711 23714 28
18972 23711 23715 28
18973 23716 23717 28
18974 23716 23718 28
18975 23716 23719 28
18976 23716 23720 28
18977 23721 23722 28
18978 23721 23723 28
18979 23721 23724 28
18980 23721 23725 28
18981 23726 23727 28
18982 23726 23728 28
18983 23726 23729 28
18984 23726 23730 28
18985 23731 23732 28
18986 23731 23733 28
18987 23731 23734 28
18988 23731 23735 28
18989 23736 23737 28
18990 23736 23738 28
18991 23736 23739 28
18992 23736 23740 28
18993 23741 23742 28
18994 23741 23743 28
18995 23741 23744 28
18996 23741 23745 28
18997 23746 23747 28
18998 23746 23748 28
18999 23746 23749 28
19000 23746 23750 28
19001 23751 23752 28
19002 23751 23753 28
19003 23751 23754 28
19004 23751 23755 28
19005 23756 23757 28
19006 23756 23758 28
19007 23756 23759 28
19008 23756 23760 28
19009 23761 23762 28
19010 23761 23763 28
19011 23761 23764 28
19012 23761 23765 28
19013 23766 23767 28
19014 23766 23768 28
19015 23766 23769 28
19016 23766 23770 28
19017 23771 23772 28
19018 23771 23773 28
19019 23771 23774 28
19020 23771 23775 28
19021 23776 23777 28
19022 23776 23778 28
19023 23776 23779 28
19024 23776 23780 28
19025 23781 23782 28
19026 23781 23783 28
19027 23781 23784 28
19028 23781 23785 28
19029 23786 23787 28
19030 23786 23788 28
19031 23786 23789 28
19032 23786 23790 28
19033 23791 23792 28
19034 23791 23793 28
19035 23791 23794 28
19036 23791 23795 28
19037 23796 23797 28
19038 23796 23798 28
19039 23796 23799 28
19040 23796 23800 28
19041 23801 23802 28
19042 23801 23803 28
19043 23801 23804 28
19044 23801 23805 28
19045 23806 23807 28
19046 23806 23808 28
19047 23806 23809 28
19048 23806 23810 28
19049 23811 23812 28
19050 23811 23813 28
19051 23811 23814 28
19052 23811 23815 28
19053 23816 23817 28
19054 23816 23818 28
19055 23816 23819 28
19056 23816 23820 28
19057 23821 23822 28
19058 23821 23823 28
19059 23821 23824 28
19060 23821 23825 28
19061 23826 23827 28
19062 23826 23828 28
19063 23826 23829 28
19064 23826 23830 28
19065 23831 23832 28
19066 23831 23833 28
19067 23831 23834 28
19068 23831 23835 28
19069 23836 23837 28
19070 23836 23838 28
19071 23836 23839 28
19072 23836 23840 28
19073 23841 23842 28
19074 23841 23843 28
19075 23841 23844 28
19076 23841 23845 28
19077 23846 23847 28
19078 23846 23848 28
19079 23846 23849 28
19080 23846 23850 28
19081 23851 23852 28
19082 23851 23853 28
19083 23851 23854 28
19084 23851 23855 28
19085 23856 23857 28
19086 23856 23858 28
19087 23856 23859 28
19088 23856 23860 28
19089 23861 23862 28
19090 23861 23863 28
19091 23861 23864 28
19092 23861 23865 28
19093 23866 23867 28
19094 23866 23868 28
19095 23866 23869 28
19096 23866 23870 28
19097 23871 23872 28
19098 23871 23873 28
19099 23871 23874 28
19100 23871 23875 28
19101 23876 23877 28
19102 23876 23878 28
19103 23876 23879 28
19104 23876 23880 28
19105 23881 23882 28
19106 23881 23883 28
19107 23881 23884 28
19108 23881 23885 28
19109 23886 23887 28
19110 23886 23888 28
19111 23886 23889 28
19112 23886 23890 28
19113 23891 23892 28
19114 23891 23893 28
19115 23891 23894 28
19116 23891 23895 28
19117 23896 23897 28
19118 23896 23898 28
19119 23896 23899 28
19120 23896 23900 28
19121 23901 23902 28
19122 23901 23903 28
19123 23901 23904 28
19124 23901 23905 28
19125 23906 23907 28
19126 23906 23908 28
19127 23906 23909 28
19128 23906 23910 28
19129 23911 23912 28
19130 23911 23913 28
19131 23911 23914 28
19132 23911 23915 28
19133 23916 23917 28
19134 23916 23918 28
19135 23916 23919 28
19136 23916 23920 28
19137 23921 23922 28
19138 23921 23923 28
19139 23921 23924 28
19140 23921 23925 28
19141 23926 23927 28
19142 23926 23928 28
19143 23926 23929 28
19144 23926 23930 28
19145 23931 23932 28
19146 23931 23933 28
19147 23931 23934 28
19148 23931 23935 28
19149 23936 23937 28
19150 23936 23938 28
19151 23936 23939 28
19152 23936 23940 28
19153 23941 23942 28
19154 23941 23943 28
19155 23941 23944 28
19156 23941 23945 28
19157 23946 23947 28
19158 23946 23948 28
19159 23946 23949 28
19160 23946 23950 28
19161 23951 23952 28
19162 23951 23953 28
19163 23951 23954 28
19164 23951 23955 28
19165 23956 23957 28
19166 23956 23958 28
19167 23956 23959 28
19168 23956 23960 28
19169 23961 23962 28
19170 23961 23963 28
19171 23961 23964 28
19172 23961 23965 28
19173 23966 23967 28
19174 23966 23968 28
19175 23966 23969 28
19176 23966 23970 28
19177 23971 23972 28
19178 23971 23973 28
19179 23971 23974 28
19180 23971 23975 28
19181 23976 23977 28
19182 23976 23978 28
19183 23976 23979 28
19184 23976 23980 28
19185 23981 23982 28
19186 23981 23983 28
19187 23981 23984 28
19188 23981 23985 28
19189 23986 23987 28
19190 23986 23988 28
19191 23986 23989 28
19192 23986 23990 28
19193 23991 23992 28
19194 23991 23993 28
19195 23991 23994 28
19196 23991 23995 28
19197 23996 23997 28
19198 23996 23998 28
19199 23996 23999 28
19200 23996 24000 28
19201 24001 24002 28
19202 24001 24003 28
19203 24001 24004 28
19204 24001 24005 28
19205 24006 24007 28
19206 24006 24008 28
19207 24006 24009 28
19208 24006 24010 28
19209 24011 24012 28
19210 24011 24013 28
19211 24011 24014 28
19212 24011 24015 28
19213 24016 24017 28
19214 24016 24018 28
19215 24016 24019 28
19216 24016 24020 28
19217 24021 24022 28
19218 24021 24023 28
19219 24021 24024 28
19220 24021 24025 28
19221 24026 24027 28
19222 24026 24028 28
19223 24026 24029 28
19224 24026 24030 28
19225 24031 24032 28
19226 24031 24033 28
19227 24031 24034 28
19228 24031 24035 28
19229 24036 24037 28
19230 24036 24038 28
19231 24036 24039 28
19232 24036 24040 28
19233 24041 24042 28
19234 24041 24043 28
19235 24041 24044 28
19236 24041 24045 28
19237 24046 24047 28
19238 24046 24048 28
19239 24046 24049 28
19240 24046 24050 28
19241 24051 24052 28
19242 24051 24053 28
19243 24051 24054 28
19244 24051 24055 28
19245 24056 24057 28
19246 24056 24058 28
19247 24056 24059 28
19248 24056 24060 28
19249 24061 24062 28
19250 24061 24063 28
19251 24061 24064 28
19252 24061 24065 28
19253 24066 24067 28
19254 24066 24068 28
19255 24066 24069 28
19256 24066 24070 28
19257 24071 24072 28
19258 24071 24073 28
19259 24071 24074 28
19260 24071 24075 28
19261 24076 24077 28
19262 24076 24078 28
19263 24076 24079 28
19264 24076 24080 28
19265 24081 24082 28
19266 24081 24083 28
19267 24081 24084 28
19268 24081 24085 28
19269 24086 24087 28
19270 24086 24088 28
19271 24086 24089 28
19272 24086 24090 28
19273 24091 24092 28
19274 24091 24093 28
19275 24091 24094 28
19276 24091 24095 28
19277 24096 24097 28
19278 24096 24098 28
19279 24096 24099 28
19280 24096 24100 28
19281 24101 24102 28
19282 24101 24103 28
19283 24101 24104 28
19284 24101 24105 28
19285 24106 24107 28
19286 24106 24108 28
19287 24106 24109 28
19288 24106 24110 28
19289 24111 24112 28
19290 24111 24113 28
19291 24111 24114 28
19292 24111 24115 28
19293 24116 24117 28
19294 24116 24118 28
19295 24116 24119 28
19296 24116 24120 28
19297 24121 24122 28
19298 24121 24123 28
19299 24121 24124 28
19300 24121 24125 28
19301 24126 24127 28
19302 24126 24128 28
19303 24126 24129 28
19304 24126 24130 28
19305 24131 24132 28
19306 24131 24133 28
19307 24131 24134 28
19308 24131 24135 28
19309 24136 24137 28
19310 24136 24138 28
19311 24136 24139 28
19312 24136 24140 28
19313 24141 24142 28
19314 24141 24143 28
19315 24141 24144 28
19316 24141 24145 28
19317 24146 24147 28
19318 24146 24148 28
19319 24146 24149 28
19320 24146 24150 28
19321 24151 24152 28
19322 24151 24153 28
19323 24151 24154 28
19324 24151 24155 28
19325 24156 24157 28
19326 24156 24158 28
19327 24156 24159 28
19328 24156 24160 28
19329 24161 24162 28
19330 24161 24163 28
19331 24161 24164 28
19332 24161 24165 28
19333 24166 24167 28
19334 24166 24168 28
19335 24166 24169 28
19336 24166 24170 28
19337 24171 24172 28
19338 24171 24173 28
19339 24171 24174 28
19340 24171 24175 28
19341 24176 24177 28
19342 24176 24178 28
19343 24176 24179 28
19344 24176 24180 28
19345 24181 24182 28
19346 24181 24183 28
19347 24181 24184 28
19348 24181 24185 28
19349 24186 24187 28
19350 24186 24188 28
19351 24186 24189 28
19352 24186 24190 28
19353 24191 24192 28
19354 24191 24193 28
19355 24191 24194 28
19356 24191 24195 28
19357 24196 24197 28
19358 24196 24198 28
19359 24196 24199 28
19360 24196 24200 28
19361 24201 24202 28
19362 24201 24203 28
19363 24201 24204 28
19364 24201 24205 28
19365 24206 24207 28
19366 24206 24208 28
19367 24206 24209 28
19368 24206 24210 28
19369 24211 24212 28
19370 24211 24213 28
19371 24211 24214 28
19372 24211 24215 28
19373 24216 24217 28
19374 24216 24218 28
19375 24216 24219 28
19376 24216 24220 28
19377 24221 24222 28
19378 24221 24223 28
19379 24221 24224 28
19380 24221 24225 28
19381 24226 24227 28
19382 24226 24228 28
19383 24226 24229 28
19384 24226 24230 28
19385 24231 24232 28
19386 24231 24233 28
19387 24231 24234 28
19388 24231 24235 28
19389 24236 24237 28
19390 24236 24238 28
19391 24236 24239 28
19392 24236 24240 28
19393 24241 24242 28
19394 24241 24243 28
19395 24241 24244 28
19396 24241 24245 28
19397 24246 24247 28
19398 24246 24248 28
19399 24246 24249 28
19400 24246 24250 28
19401 24251 24252 28
19402 24251 24253 28
19403 24251 24254 28
19404 24251 24255 28
19405 24256 24257 28
19406 24256 24258 28
19407 24256 24259 28
19408 24256 24260 28
19409 24261 24262 28
19410 24261 24263 28
19411 24261 24264 28
19412 24261 24265 28
19413 24266 24267 28
19414 24266 24268 28
19415 24266 24269 28
19416 24266 24270 28
19417 24271 24272 28
19418 24271 24273 28
19419 24271 24274 28
19420 24271 24275 28
19421 24276 24277 28
19422 24276 24278 28
19423 24276 24279 28
19424 24276 24280 28
19425 24281 24282 28
19426 24281 24283 28
19427 24281 24284 28
19428 24281 24285 28
19429 24286 24287 28
19430 24286 24288 28
19431 24286 24289 28
19432 24286 24290 28
19433 24291 24292 28
19434 24291 24293 28
19435 24291 24294 28
19436 24291 24295 28
19437 24296 24297 28
19438 24296 24298 28
19439 24296 24299 28
19440 24296 24300 28
19441 24301 24302 28
19442 24301 24303 28
19443 24301 24304 28
19444 24301 24305 28
19445 24306 24307 28
19446 24306 24308 28
19447 24306 24309 28
19448 24306 24310 28
19449 24311 24312 28
19450 24311 24313 28
19451 24311 24314 28
19452 24311 24315 28
19453 24316 24317 28
19454 24316 24318 28
19455 24316 24319 28
19456 24316 24320 28
19457 24321 24322 28
19458 24321 24323 28
19459 24321 24324 28
19460 24321 24325 28
19461 24326 24327 28
19462 24326 24328 28
19463 24326 24329 28
19464 24326 24330 28
19465 24331 24332 28
19466 24331 24333 28
19467 24331 24334 28
19468 24331 24335 28
19469 24336 24337 28
19470 24336 24338 28
19471 24336 24339 28
19472 24336 24340 28
19473 24341 24342 28
19474 24341 24343 28
19475 24341 24344 28
19476 24341 24345 28
19477 24346 24347 28
19478 24346 24348 28
19479 24346 24349 28
19480 24346 24350 28
19481 24351 24352 28
19482 24351 24353 28
19483 24351 24354 28
19484 24351 24355 28
19485 24356 24357 28
19486 24356 24358 28
19487 24356 24359 28
19488 24356 24360 28
19489 24361 24362 28
19490 24361 24363 28
19491 24361 24364 28
19492 24361 24365 28
19493 24366 24367 28
19494 24366 24368 28
19495 24366 24369 28
19496 24366 24370 28
19497 24371 24372 28
19498 24371 24373 28
19499 24371 24374 28
19500 24371 24375 28
19501 24376 24377 28
19502 24376 24378 28
19503 24376 24379 28
19504 24376 24380 28
19505 24381 24382 28
19506 24381 24383 28
19507 24381 24384 28
19508 24381 24385 28
19509 24386 24387 28
19510 24386 24388 28
19511 24386 24389 28
19512 24386 24390 28
19513 24391 24392 28
19514 24391 24393 28
19515 24391 24394 28
19516 24391 24395 28
19517 24396 24397 28
19518 24396 24398 28
19519 24396 24399 28
19520 24396 24400 28
19521 24401 24402 28
19522 24401 24403 28
19523 24401 24404 28
19524 24401 24405 28
19525 24406 24407 28
19526 24406 24408 28
19527 24406 24409 28
19528 24406 24410 28
19529 24411 24412 28
19530 24411 24413 28
19531 24411 24414 28
19532 24411 24415 28
19533 24416 24417 28
19534 24416 24418 28
19535 24416 24419 28
19536 24416 24420 28
19537 24421 24422 28
19538 24421 24423 28
19539 24421 24424 28
19540 24421 24425 28
19541 24426 24427 28
19542 24426 24428 28
19543 24426 24429 28
19544 24426 24430 28
19545 24431 24432 28
19546 24431 24433 28
19547 24431 24434 28
19548 24431 24435 28
19549 24436 24437 28
19550 24436 24438 28
19551 24436 24439 28
19552 24436 24440 28
19553 24441 24442 28
19554 24441 24443 28
19555 24441 24444 28
19556 24441 24445 28
19557 24446 24447 28
19558 24446 24448 28
19559 24446 24449 28
19560 24446 24450 28
19561 24451 24452 28
19562 24451 24453 28
19563 24451 24454 28
19564 24451 24455 28
19565 24456 24457 28
19566 24456 24458 28
19567 24456 24459 28
19568 24456 24460 28
19569 24461 24462 28
19570 24461 24463 28
19571 24461 24464 28
19572 24461 24465 28
19573 24466 24467 28
19574 24466 24468 28
19575 24466 24469 28
19576 24466 24470 28
19577 24471 24472 28
19578 24471 24473 28
19579 24471 24474 28
19580 24471 24475 28
19581 24476 24477 28
19582 24476 24478 28
19583 24476 24479 28
19584 24476 24480 28
19585 24481 24482 28
19586 24481 24483 28
19587 24481 24484 28
19588 24481 24485 28
19589 24486 24487 28
19590 24486 24488 28
19591 24486 24489 28
19592 24486 24490 28
19593 24491 24492 28
19594 24491 24493 28
19595 24491 24494 28
19596 24491 24495 28
19597 24496 24497 28
19598 24496 24498 28
19599 24496 24499 28
19600 24496 24500 28
19601 24501 24502 28
19602 24501 24503 28
19603 24501 24504 28
19604 24501 24505 28
19605 24506 24507 28
19606 24506 24508 28
19607 24506 24509 28
19608 24506 24510 28
19609 24511 24512 28
19610 24511 24513 28
19611 24511 24514 28
19612 24511 24515 28
19613 24516 24517 28
19614 24516 24518 28
19615 24516 24519 28
19616 24516 24520 28
19617 24521 24522 28
19618 24521 24523 28
19619 24521 24524 28
19620 24521 24525 28
19621 24526 24527 28
19622 24526 24528 28
19623 24526 24529 28
19624 24526 24530 28
19625 24531 24532 28
19626 24531 24533 28
19627 24531 24534 28
19628 24531 24535 28
19629 24536 24537 28
19630 24536 24538 28
19631 24536 24539 28
19632 24536 24540 28
19633 24541 24542 28
19634 24541 24543 28
19635 24541 24544 28
19636 24541 24545 28
19637 24546 24547 28
19638 24546 24548 28
19639 24546 24549 28
19640 24546 24550 28
19641 24551 24552 28
19642 24551 24553 28
19643 24551 24554 28
19644 24551 24555 28
19645 24556 24557 28
19646 24556 24558 28
19647 24556 24559 28
19648 24556 24560 28
19649 24561 24562 28
19650 24561 24563 28
19651 24561 24564 28
19652 24561 24565 28
19653 24566 24567 28
19654 24566 24568 28
19655 24566 24569 28
19656 24566 24570 28
19657 24571 24572 28
19658 24571 24573 28
19659 24571 24574 28
19660 24571 24575 28
19661 24576 24577 28
19662 24576 24578 28
19663 24576 24579 28
19664 24576 24580 28
19665 24581 24582 28
19666 24581 24583 28
19667 24581 24584 28
19668 24581 24585 28
19669 24586 24587 28
19670 24586 24588 28
19671 24586 24589 28
19672 24586 24590 28
19673 24591 24592 28
19674 24591 24593 28
19675 24591 24594 28
19676 24591 24595 28
19677 24596 24597 28
19678 24596 24598 28
19679 24596 24599 28
19680 24596 24600 28
19681 24601 24602 28
19682 24601 24603 28
19683 24601 24604 28
19684 24601 24605 28
19685 24606 24607 28
19686 24606 24608 28
19687 24606 24609 28
19688 24606 24610 28
19689 24611 24612 28
19690 24611 24613 28
19691 24611 24614 28
19692 24611 24615 28
19693 24616 24617 28
19694 24616 24618 28
19695 24616 24619 28
19696 24616 24620 28
19697 24621 24622 28
19698 24621 24623 28
19699 24621 24624 28
19700 24621 24625 28
19701 24626 24627 28
19702 24626 24628 28
19703 24626 24629 28
19704 24626 24630 28
19705 24631 24632 28
19706 24631 24633 28
19707 24631 24634 28
19708 24631 24635 28
19709 24636 24637 28
19710 24636 24638 28
19711 24636 24639 28
19712 24636 24640 28
19713 24641 24642 28
19714 24641 24643 28
19715 24641 24644 28
19716 24641 24645 28
19717 24646 24647 28
19718 24646 24648 28
19719 24646 24649 28
19720 24646 24650 28
19721 24651 24652 28
19722 24651 24653 28
19723 24651 24654 28
19724 24651 24655 28
19725 24656 24657 28
19726 24656 24658 28
19727 24656 24659 28
19728 24656 24660 28
19729 24661 24662 28
19730 24661 24663 28
19731 24661 24664 28
19732 24661 24665 28
19733 24666 24667 28
19734 24666 24668 28
19735 24666 24669 28
19736 24666 24670 28
19737 24671 24672 28
19738 24671 24673 28
19739 24671 24674 28
19740 24671 24675 28
19741 24676 24677 28
19742 24676 24678 28
19743 24676 24679 28
19744 24676 24680 28
19745 24681 24682 28
19746 24681 24683 28
19747 24681 24684 28
19748 24681 24685 28
19749 24686 24687 28
19750 24686 24688 28
19751 24686 24689 28
19752 24686 24690 28
19753 24691 24692 28
19754 24691 24693 28
19755 24691 24694 28
19756 24691 24695 28
19757 24696 24697 28
19758 24696 24698 28
19759 24696 24699 28
19760 24696 24700 28
19761 24701 24702 28
19762 24701 24703 28
19763 24701 24704 28
19764 24701 24705 28
19765 24706 24707 28
19766 24706 24708 28
19767 24706 24709 28
19768 24706 24710 28
19769 24711 24712 28
19770 24711 24713 28
19771 24711 24714 28
19772 24711 24715 28
19773 24716 24717 28
19774 24716 24718 28
19775 24716 24719 28
19776 24716 24720 28
19777 24721 24722 28
19778 24721 24723 28
19779 24721 24724 28
19780 24721 24725 28
19781 24726 24727 28
19782 24726 24728 28
19783 24726 24729 28
19784 24726 24730 28
19785 24731 24732 28
19786 24731 24733 28
19787 24731 24734 28
19788 24731 24735 28
19789 24736 24737 28
19790 24736 24738 28
19791 24736 24739 28
19792 24736 24740 28
19793 24741 24742 28
19794 24741 24743 28
19795 24741 24744 28
19796 24741 24745 28
19797 24746 24747 28
19798 24746 24748 28
19799 24746 24749 28
19800 24746 24750 28
19801 24751 24752 28
19802 24751 24753 28
19803 24751 24754 28
19804 24751 24755 28
19805 24756 24757 28
19806 24756 24758 28
19807 24756 24759 28
19808 24756 24760 28
19809 24761 24762 28
19810 24761 24763 28
19811 24761 24764 28
19812 24761 24765 28
19813 24766 24767 28
19814 24766 24768 28
19815 24766 24769 28
19816 24766 24770 28
19817 24771 24772 28
19818 24771 24773 28
19819 24771 24774 28
19820 24771 24775 28
19821 24776 24777 28
19822 24776 24778 28
19823 24776 24779 28
19824 24776 24780 28
19825 24781 24782 28
19826 24781 24783 28
19827 24781 24784 28
19828 24781 24785 28
19829 24786 24787 28
19830 24786 24788 28
19831 24786 24789 28
19832 24786 24790 28
19833 24791 24792 28
19834 24791 24793 28
19835 24791 24794 28
19836 24791 24795 28
19837 24796 24797 28
19838 24796 24798 28
19839 24796 24799 28
19840 24796 24800 28
19841 24801 24802 28
19842 24801 24803 28
19843 24801 24804 28
19844 24801 24805 28
19845 24806 24807 28
19846 24806 24808 28
19847 24806 24809 28
19848 24806 24810 28
19849 24811 24812 28
19850 24811 24813 28
19851 24811 24814 28
19852 24811 24815 28
19853 24816 24817 28
19854 24816 24818 28
19855 24816 24819 28
19856 24816 24820 28
19857 24821 24822 28
19858 24821 24823 28
19859 24821 24824 28
19860 24821 24825 28
19861 24826 24827 28
19862 24826 24828 28
19863 24826 24829 28
19864 24826 24830 28
19865 24831 24832 28
19866 24831 24833 28
19867 24831 24834 28
19868 24831 24835 28
19869 24836 24837 28
19870 24836 24838 28
19871 24836 24839 28
19872 24836 24840 28
19873 24841 24842 28
19874 24841 24843 28
19875 24841 24844 28
19876 24841 24845 28
19877 24846 24847 28
19878 24846 24848 28
19879 24846 24849 28
19880 24846 24850 28
19881 24851 24852 28
19882 24851 24853 28
19883 24851 24854 28
19884 24851 24855 28
19885 24856 24857 28
19886 24856 24858 28
19887 24856 24859 28
19888 24856 24860 28
19889 24861 24862 28
19890 24861 24863 28
19891 24861 24864 28
19892 24861 24865 28
19893 24866 24867 28
19894 24866 24868 28
19895 24866 24869 28
19896 24866 24870 28
19897 24871 24872 28
19898 24871 24873 28
19899 24871 24874 28
19900 24871 24875 28
19901 24876 24877 28
19902 24876 24878 28
19903 24876 24879 28
19904 24876 24880 28
19905 24881 24882 28
19906 24881 24883 28
19907 24881 24884 28
19908 24881 24885 28
19909 24886 24887 28
19910 24886 24888 28
19911 24886 24889 28
19912 24886 24890 28
19913 24891 24892 28
19914 24891 24893 28
19915 24891 24894 28
19916 24891 24895 28
19917 24896 24897 28
19918 24896 24898 28
19919 24896 24899 28
19920 24896 24900 28
19921 24901 24902 28
19922 24901 24903 28
19923 24901 24904 28
19924 24901 24905 28
19925 24906 24907 28
19926 24906 24908 28
19927 24906 24909 28
19928 24906 24910 28
19929 24911 24912 28
19930 24911 24913 28
19931 24911 24914 28
19932 24911 24915 28
19933 24916 24917 28
19934 24916 24918 28
19935 24916 24919 28
19936 24916 24920 28
19937 24921 24922 28
19938 24921 24923 28
19939 24921 24924 28
19940 24921 24925 28
19941 24926 24927 28
19942 24926 24928 28
19943 24926 24929 28
19944 24926 24930 28
19945 24931 24932 28
19946 24931 24933 28
19947 24931 24934 28
19948 24931 24935 28
19949 24936 24937 28
19950 24936 24938 28
19951 24936 24939 28
19952 24936 24940 28
19953 24941 24942 28
19954 24941 24943 28
19955 24941 24944 28
19956 24941 24945 28
19957 24946 24947 28
19958 24946 24948 28
19959 24946 24949 28
19960 24946 24950 28
19961 24951 24952 28
19962 24951 24953 28
19963 24951 24954 28
19964 24951 24955 28
19965 24956 24957 28
19966 24956 24958 28
19967 24956 24959 28
19968 24956 24960 28
19969 24961 24962 28
19970 24961 24963 28
19971 24961 24964 28
19972 24961 24965 28
19973 24966 24967 28
19974 24966 24968 28
19975 24966 24969 28
19976 24966 24970 28
19977 24971 24972 28
19978 24971 24973 28
19979 24971 24974 28
19980 24971 24975 28
19981 24976 24977 28
19982 24976 24978 28
19983 24976 24979 28
19984 24976 24980 28
19985 24981 24982 28
19986 24981 24983 28
19987 24981 24984 28
19988 24981 24985 28
19989 24986 24987 28
19990 24986 24988 28
19991 24986 24989 28
19992 24986 24990 28
19993 24991 24992 28
19994 24991 24993 28
19995 24991 24994 28
19996 24991 24995 28
19997 24996 24997 28
19998 24996 24998 28
19999 24996 24999 28
20000 24996 25000 28
20001 25001 25002 28
20002 25001 25003 28
20003 25001 25004 28
20004 25001 25005 28
20005 25006 25007 28
20006 25006 25008 28
20007 25006 25009 28
20008 25006 25010 28
20009 25011 25012 28
20010 25011 25013 28
20011 25011 25014 28
20012 25011 25015 28
20013 25016 25017 28
20014 25016 25018 28
20015 25016 25019 28
20016 25016 25020 28
20017 25021 25022 28
20018 25021 25023 28
20019 25021 25024 28
20020 25021 25025 28
20021 25026 25027 28
20022 25026 25028 28
20023 25026 25029 28
20024 25026 25030 28
20025 25031 25032 28
20026 25031 25033 28
20027 25031 25034 28
20028 25031 25035 28
20029 25036 25037 28
20030 25036 25038 28
20031 25036 25039 28
20032 25036 25040 28
20033 25041 25042 28
20034 25041 25043 28
20035 25041 25044 28
20036 25041 25045 28
20037 25046 25047 28
20038 25046 25048 28
20039 25046 25049 28
20040 25046 25050 28
20041 25051 25052 28
20042 25051 25053 28
20043 25051 25054 28
20044 25051 25055 28
20045 25056 25057 28
20046 25056 25058 28
20047 25056 25059 28
20048 25056 25060 28
20049 25061 25062 28
20050 25061 25063 28
20051 25061 25064 28
20052 25061 25065 28
20053 25066 25067 28
20054 25066 25068 28
20055 25066 25069 28
20056 25066 25070 28
20057 25071 25072 28
20058 25071 25073 28
20059 25071 25074 28
20060 25071 25075 28
20061 25076 25077 28
20062 25076 25078 28
20063 25076 25079 28
20064 25076 25080 28
20065 25081 25082 28
20066 25081 25083 28
20067 25081 25084 28
20068 25081 25085 28
20069 25086 25087 28
20070 25086 25088 28
20071 25086 25089 28
20072 25086 25090 28
20073 25091 25092 28
20074 25091 25093 28
20075 25091 25094 28
20076 25091 25095 28
20077 25096 25097 28
20078 25096 25098 28
20079 25096 25099 28
20080 25096 25100 28
20081 25101 25102 28
20082 25101 25103 28
20083 25101 25104 28
20084 25101 25105 28
20085 25106 25107 28
20086 25106 25108 28
20087 25106 25109 28
20088 25106 25110 28
20089 25111 25112 28
20090 25111 25113 28
20091 25111 25114 28
20092 25111 25115 28
20093 25116 25117 28
20094 25116 25118 28
20095 25116 25119 28
20096 25116 25120 28
20097 25121 25122 28
20098 25121 25123 28
20099 25121 25124 28
20100 25121 25125 28
20101 25126 25127 28
20102 25126 25128 28
20103 25126 25129 28
20104 25126 25130 28
20105 25131 25132 28
20106 25131 25133 28
20107 25131 25134 28
20108 25131 25135 28
20109 25136 25137 28
20110 25136 25138 28
20111 25136 25139 28
20112 25136 25140 28
20113 25141 25142 28
20114 25141 25143 28
20115 25141 25144 28
20116 25141 25145 28
20117 25146 25147 28
20118 25146 25148 28
20119 25146 25149 28
20120 25146 25150 28
20121 25151 25152 28
20122 25151 25153 28
20123 25151 25154 28
20124 25151 25155 28
20125 25156 25157 28
20126 25156 25158 28
20127 25156 25159 28
20128 25156 25160 28
20129 25161 25162 28
20130 25161 25163 28
20131 25161 25164 28
20132 25161 25165 28
20133 25166 25167 28
20134 25166 25168 28
20135 25166 25169 28
20136 25166 25170 28
20137 25171 25172 28
20138 25171 25173 28
20139 25171 25174 28
20140 25171 25175 28
20141 25176 25177 28
20142 25176 25178 28
20143 25176 25179 28
20144 25176 25180 28
20145 25181 25182 28
20146 25181 25183 28
20147 25181 25184 28
20148 25181 25185 28
20149 25186 25187 28
20150 25186 25188 28
20151 25186 25189 28
20152 25186 25190 28
20153 25191 25192 28
20154 25191 25193 28
20155 25191 25194 28
20156 25191 25195 28
20157 25196 25197 28
20158 25196 25198 28
20159 25196 25199 28
20160 25196 25200 28
20161 25201 25202 28
20162 25201 25203 28
20163 25201 25204 28
20164 25201 25205 28
20165 25206 25207 28
20166 25206 25208 28
20167 25206 25209 28
20168 25206 25210 28
20169 25211 25212 28
20170 25211 25213 28
20171 25211 25214 28
20172 25211 25215 28
20173 25216 25217 28
20174 25216 25218 28
20175 25216 25219 28
20176 25216 25220 28
20177 25221 25222 28
20178 25221 25223 28
20179 25221 25224 28
20180 25221 25225 28
20181 25226 25227 28
20182 25226 25228 28
20183 25226 25229 28
20184 25226 25230 28
20185 25231 25232 28
20186 25231 25233 28
20187 25231 25234 28
20188 25231 25235 28
20189 25236 25237 28
20190 25236 25238 28
20191 25236 25239 28
20192 25236 25240 28
20193 25241 25242 28
20194 25241 25243 28
20195 25241 25244 28
20196 25241 25245 28
20197 25246 25247 28
20198 25246 25248 28
20199 25246 25249 28
20200 25246 25250 28
20201 25251 25252 28
20202 25251 25253 28
20203 25251 25254 28
20204 25251 25255 28
20205 25256 25257 28
20206 25256 25258 28
20207 25256 25259 28
20208 25256 25260 28
20209 25261 25262 28
20210 25261 25263 28
20211 25261 25264 28
20212 25261 25265 28
20213 25266 25267 28
20214 25266 25268 28
20215 25266 25269 28
20216 25266 25270 28
20217 25271 25272 28
20218 25271 25273 28
20219 25271 25274 28
20220 25271 25275 28
20221 25276 25277 28
20222 25276 25278 28
20223 25276 25279 28
20224 25276 25280 28
20225 25281 25282 28
20226 25281 25283 28
20227 25281 25284 28
20228 25281 25285 28
20229 25286 25287 28
20230 25286 25288 28
20231 25286 25289 28
20232 25286 25290 28
20233 25291 25292 28
20234 25291 25293 28
20235 25291 25294 28
20236 25291 25295 28
20237 25296 25297 28
20238 25296 25298 28
20239 25296 25299 28
20240 25296 25300 28
20241 25301 25302 28
20242 25301 25303 28
20243 25301 25304 28
20244 25301 25305 28
20245 25306 25307 28
20246 25306 25308 28
20247 25306 25309 28
20248 25306 25310 28
20249 25311 25312 28
20250 25311 25313 28
20251 25311 25314 28
20252 25311 25315 28
20253 25316 25317 28
20254 25316 25318 28
20255 25316 25319 28
20256 25316 25320 28
20257 25321 25322 28
20258 25321 25323 28
20259 25321 25324 28
20260 25321 25325 28
20261 25326 25327 28
20262 25326 25328 28
20263 25326 25329 28
20264 25326 25330 28
20265 25331 25332 28
20266 25331 25333 28
20267 25331 25334 28
20268 25331 25335 28
20269 25336 25337 28
20270 25336 25338 28
20271 25336 25339 28
20272 25336 25340 28
20273 25341 25342 28
20274 25341 25343 28
20275 25341 25344 28
20276 25341 25345 28
20277 25346 25347 28
20278 25346 25348 28
20279 25346 25349 28
20280 25346 25350 28
20281 25351 25352 28
20282 25351 25353 28
20283 25351 25354 28
20284 25351 25355 28
20285 25356 25357 28
20286 25356 25358 28
20287 25356 25359 28
20288 25356 25360 28
20289 25361 25362 28
20290 25361 25363 28
20291 25361 25364 28
20292 25361 25365 28
20293 25366 25367 28
20294 25366 25368 28
20295 25366 25369 28
20296 25366 25370 28
20297 25371 25372 28
20298 25371 25373 28
20299 25371 25374 28
20300 25371 25375 28
20301 25376 25377 28
20302 25376 25378 28
20303 25376 25379 28
20304 25376 25380 28
20305 25381 25382 28
20306 25381 25383 28
20307 25381 25384 28
20308 25381 25385 28
20309 25386 25387 28
20310 25386 25388 28
20311 25386 25389 28
20312 25386 25390 28
20313 25391 25392 28
20314 25391 25393 28
20315 25391 25394 28
20316 25391 25395 28
20317 25396 25397 28
20318 25396 25398 28
20319 25396 25399 28
20320 25396 25400 28
20321 25401 25402 28
20322 25401 25403 28
20323 25401 25404 28
20324 25401 25405 28
20325 25406 25407 28
20326 25406 25408 28
20327 25406 25409 28
20328 25406 25410 28
20329 25411 25412 28
20330 25411 25413 28
20331 25411 25414 28
20332 25411 25415 28
20333 25416 25417 28
20334 25416 25418 28
20335 25416 25419 28
20336 25416 25420 28
20337 25421 25422 28
20338 25421 25423 28
20339 25421 25424 28
20340 25421 25425 28
20341 25426 25427 28
20342 25426 25428 28
20343 25426 25429 28
20344 25426 25430 28
20345 25431 25432 28
20346 25431 25433 28
20347 25431 25434 28
20348 25431 25435 28
20349 25436 25437 28
20350 25436 25438 28
20351 25436 25439 28
20352 25436 25440 28
20353 25441 25442 28
20354 25441 25443 28
20355 25441 25444 28
20356 25441 25445 28
20357 25446 25447 28
20358 25446 25448 28
20359 25446 25449 28
20360 25446 25450 28
20361 25451 25452 28
20362 25451 25453 28
20363 25451 25454 28
20364 25451 25455 28
20365 25456 25457 28
20366 25456 25458 28
20367 25456 25459 28
20368 25456 25460 28
20369 25461 25462 28
20370 25461 25463 28
20371 25461 25464 28
20372 25461 25465 28
20373 25466 25467 28
20374 25466 25468 28
20375 25466 25469 28
20376 25466 25470 28
20377 25471 25472 28
20378 25471 25473 28
20379 25471 25474 28
20380 25471 25475 28
20381 25476 25477 28
20382 25476 25478 28
20383 25476 25479 28
20384 25476 25480 28
20385 25481 25482 28
20386 25481 25483 28
20387 25481 25484 28
20388 25481 25485 28
20389 25486 25487 28
20390 25486 25488 28
20391 25486 25489 28
20392 25486 25490 28
20393 25491 25492 28
20394 25491 25493 28
20395 25491 25494 28
20396 25491 25495 28
20397 25496 25497 28
20398 25496 25498 28
20399 25496 25499 28
20400 25496 25500 28
20401 25501 25502 28
20402 25501 25503 28
20403 25501 25504 28
20404 25501 25505 28
20405 25506 25507 28
20406 25506 25508 28
20407 25506 25509 28
20408 25506 25510 28
20409 25511 25512 28
20410 25511 25513 28
20411 25511 25514 28
20412 25511 25515 28
20413 25516 25517 28
20414 25516 25518 28
20415 25516 25519 28
20416 25516 25520 28
20417 25521 25522 28
20418 25521 25523 28
20419 25521 25524 28
20420 25521 25525 28
20421 25526 25527 28
20422 25526 25528 28
20423 25526 25529 28
20424 25526 25530 28
20425 25531 25532 28
20426 25531 25533 28
20427 25531 25534 28
20428 25531 25535 28
20429 25536 25537 28
20430 25536 25538 28
20431 25536 25539 28
20432 25536 25540 28
20433 25541 25542 28
20434 25541 25543 28
20435 25541 25544 28
20436 25541 25545 28
20437 25546 25547 28
20438 25546 25548 28
20439 25546 25549 28
20440 25546 25550 28
20441 25551 25552 28
20442 25551 25553 28
20443 25551 25554 28
20444 25551 25555 28
20445 25556 25557 28
20446 25556 25558 28
20447 25556 25559 28
20448 25556 25560 28
20449 25561 25562 28
20450 25561 25563 28
20451 25561 25564 28
20452 25561 25565 28
20453 25566 25567 28
20454 25566 25568 28
20455 25566 25569 28
20456 25566 25570 28
20457 25571 25572 28
20458 25571 25573 28
20459 25571 25574 28
20460 25571 25575 28
20461 25576 25577 28
20462 25576 25578 28
20463 25576 25579 28
20464 25576 25580 28
20465 25581 25582 28
20466 25581 25583 28
20467 25581 25584 28
20468 25581 25585 28
20469 25586 25587 28
20470 25586 25588 28
20471 25586 25589 28
20472 25586 25590 28
20473 25591 25592 28
20474 25591 25593 28
20475 25591 25594 28
20476 25591 25595 28
20477 25596 25597 28
20478 25596 25598 28
20479 25596 25599 28
20480 25596 25600 28
20481 25601 25602 28
20482 25601 25603 28
20483 25601 25604 28
20484 25601 25605 28
20485 25606 25607 28
20486 25606 25608 28
20487 25606 25609 28
20488 25606 25610 28
20489 25611 25612 28
20490 25611 25613 28
20491 25611 25614 28
20492 25611 25615 28
20493 25616 25617 28
20494 25616 25618 28
20495 25616 25619 28
20496 25616 25620 28
20497 25621 25622 28
20498 25621 25623 28
20499 25621 25624 28
20500 25621 25625 28
20501 25626 25627 28
20502 25626 25628 28
20503 25626 25629 28
20504 25626 25630 28
20505 25631 25632 28
20506 25631 25633 28
20507 25631 25634 28
20508 25631 25635 28
20509 25636 25637 28
20510 25636 25638 28
20511 25636 25639 28
20512 25636 25640 28
20513 25641 25642 28
20514 25641 25643 28
20515 25641 25644 28
20516 25641 25645 28
20517 25646 25647 28
20518 25646 25648 28
20519 25646 25649 28
20520 25646 25650 28
20521 25651 25652 28
20522 25651 25653 28
20523 25651 25654 28
20524 25651 25655 28
20525 25656 25657 28
20526 25656 25658 28
20527 25656 25659 28
20528 25656 25660 28
20529 25661 25662 28
20530 25661 25663 28
20531 25661 25664 28
20532 25661 25665 28
20533 25666 25667 28
20534 25666 25668 28
20535 25666 25669 28
20536 25666 25670 28
20537 25671 25672 28
20538 25671 25673 28
20539 25671 25674 28
20540 25671 25675 28
20541 25676 25677 28
20542 25676 25678 28
20543 25676 25679 28
20544 25676 25680 28
20545 25681 25682 28
20546 25681 25683 28
20547 25681 25684 28
20548 25681 25685 28
20549 25686 25687 28
20550 25686 25688 28
20551 25686 25689 28
20552 25686 25690 28
20553 25691 25692 28
20554 25691 25693 28
20555 25691 25694 28
20556 25691 25695 28
20557 25696 25697 28
20558 25696 25698 28
20559 25696 25699 28
20560 25696 25700 28
20561 25701 25702 28
20562 25701 25703 28
20563 25701 25704 28
20564 25701 25705 28
20565 25706 25707 28
20566 25706 25708 28
20567 25706 25709 28
20568 25706 25710 28
20569 25711 25712 28
20570 25711 25713 28
20571 25711 25714 28
20572 25711 25715 28
20573 25716 25717 28
20574 25716 25718 28
20575 25716 25719 28
20576 25716 25720 28
20577 25721 25722 28
20578 25721 25723 28
20579 25721 25724 28
20580 25721 25725 28
20581 25726 25727 28
20582 25726 25728 28
20583 25726 25729 28
20584 25726 25730 28
20585 25731 25732 28
20586 25731 25733 28
20587 25731 25734 28
20588 25731 25735 28
20589 25736 25737 28
20590 25736 25738 28
20591 25736 25739 28
20592 25736 25740 28
20593 25741 25742 28
20594 25741 25743 28
20595 25741 25744 28
20596 25741 25745 28
20597 25746 25747 28
20598 25746 25748 28
20599 25746 25749 28
20600 25746 25750 28
20601 25751 25752 28
20602 25751 25753 28
20603 25751 25754 28
20604 25751 25755 28
20605 25756 25757 28
20606 25756 25758 28
20607 25756 25759 28
20608 25756 25760 28
20609 25761 25762 28
20610 25761 25763 28
20611 25761 25764 28
20612 25761 25765 28
20613 25766 25767 28
20614 25766 25768 28
20615 25766 25769 28
20616 25766 25770 28
20617 25771 25772 28
20618 25771 25773 28
20619 25771 25774 28
20620 25771 25775 28
20621 25776 25777 28
20622 25776 25778 28
20623 25776 25779 28
20624 25776 25780 28
20625 25781 25782 28
20626 25781 25783 28
20627 25781 25784 28
20628 25781 25785 28
20629 25786 25787 28
20630 25786 25788 28
20631 25786 25789 28
20632 25786 25790 28
20633 25791 25792 28
20634 25791 25793 28
20635 25791 25794 28
20636 25791 25795 28
20637 25796 25797 28
20638 25796 25798 28
20639 25796 25799 28
20640 25796 25800 28
20641 25801 25802 28
20642 25801 25803 28
20643 25801 25804 28
20644 25801 25805 28
20645 25806 25807 28
20646 25806 25808 28
20647 25806 25809 28
20648 25806 25810 28
20649 25811 25812 28
20650 25811 25813 28
20651 25811 25814 28
20652 25811 25815 28
20653 25816 25817 28
20654 25816 25818 28
20655 25816 25819 28
20656 25816 25820 28
20657 25821 25822 28
20658 25821 25823 28
20659 25821 25824 28
20660 25821 25825 28
20661 25826 25827 28
20662 25826 25828 28
20663 25826 25829 28
20664 25826 25830 28
20665 25831 25832 28
20666 25831 25833 28
20667 25831 25834 28
20668 25831 25835 28
20669 25836 25837 28
20670 25836 25838 28
20671 25836 25839 28
20672 25836 25840 28
20673 25841 25842 28
20674 25841 25843 28
20675 25841 25844 28
20676 25841 25845 28
20677 25846 25847 28
20678 25846 25848 28
20679 25846 25849 28
20680 25846 25850 28
20681 25851 25852 28
20682 25851 25853 28
20683 25851 25854 28
20684 25851 25855 28
20685 25856 25857 28
20686 25856 25858 28
20687 25856 25859 28
20688 25856 25860 28
20689 25861 25862 28
20690 25861 25863 28
20691 25861 25864 28
20692 25861 25865 28
20693 25866 25867 28
20694 25866 25868 28
20695 25866 25869 28
20696 25866 25870 28
20697 25871 25872 28
20698 25871 25873 28
20699 25871 25874 28
20700 25871 25875 28
20701 25876 25877 28
20702 25876 25878 28
20703 25876 25879 28
20704 25876 25880 28
20705 25881 25882 28
20706 25881 25883 28
20707 25881 25884 28
20708 25881 25885 28
20709 25886 25887 28
20710 25886 25888 28
20711 25886 25889 28
20712 25886 25890 28
20713 25891 25892 28
20714 25891 25893 28
20715 25891 25894 28
20716 25891 25895 28
20717 25896 25897 28
20718 25896 25898 28
20719 25896 25899 28
20720 25896 25900 28
20721 25901 25902 28
20722 25901 25903 28
20723 25901 25904 28
20724 25901 25905 28
20725 25906 25907 28
20726 25906 25908 28
20727 25906 25909 28
20728 25906 25910 28
20729 25911 25912 28
20730 25911 25913 28
20731 25911 25914 28
20732 25911 25915 28
20733 25916 25917 28
20734 25916 25918 28
20735 25916 25919 28
20736 25916 25920 28
20737 25921 25922 28
20738 25921 25923 28
20739 25921 25924 28
20740 25921 25925 28
20741 25926 25927 28
20742 25926 25928 28
20743 25926 25929 28
20744 25926 25930 28
20745 25931 25932 28
20746 25931 25933 28
20747 25931 25934 28
20748 25931 25935 28
20749 25936 25937 28
20750 25936 25938 28
20751 25936 25939 28
20752 25936 25940 28
20753 25941 25942 28
20754 25941 25943 28
20755 25941 25944 28
20756 25941 25945 28
20757 25946 25947 28
20758 25946 25948 28
20759 25946 25949 28
20760 25946 25950 28
20761 25951 25952 28
20762 25951 25953 28
20763 25951 25954 28
20764 25951 25955 28
20765 25956 25957 28
20766 25956 25958 28
20767 25956 25959 28
20768 25956 25960 28
20769 25961 25962 28
20770 25961 25963 28
20771 25961 25964 28
20772 25961 25965 28
20773 25966 25967 28
20774 25966 25968 28
20775 25966 25969 28
20776 25966 25970 28
20777 25971 25972 28
20778 25971 25973 28
20779 25971 25974 28
20780 25971 25975 28
20781 25976 25977 28
20782 25976 25978 28
20783 25976 25979 28
20784 25976 25980 28
20785 25981 25982 28
20786 25981 25983 28
20787 25981 25984 28
20788 25981 25985 28
20789 25986 25987 28
20790 25986 25988 28
20791 25986 25989 28
20792 25986 25990 28
20793 25991 25992 28
20794 25991 25993 28
20795 25991 25994 28
20796 25991 25995 28
20797 25996 25997 28
20798 25996 25998 28
20799 25996 25999 28
20800 25996 26000 28
20801 26001 26002 28
20802 26001 26003 28
20803 26001 26004 28
20804 26001 26005 28
20805 26006 26007 28
20806 26006 26008 28
20807 26006 26009 28
20808 26006 26010 28
20809 26011 26012 28
20810 26011 26013 28
20811 26011 26014 28
20812 26011 26015 28
20813 26016 26017 28
20814 26016 26018 28
20815 26016 26019 28
20816 26016 26020 28
20817 26021 26022 28
20818 26021 26023 28
20819 26021 26024 28
20820 26021 26025 28
20821 26026 26027 28
20822 26026 26028 28
20823 26026 26029 28
20824 26026 26030 28
20825 26031 26032 28
20826 26031 26033 28
20827 26031 26034 28
20828 26031 26035 28
20829 26036 26037 28
20830 26036 26038 28
20831 26036 26039 28
20832 26036 26040 28
20833 26041 26042 28
20834 26041 26043 28
20835 26041 26044 28
20836 26041 26045 28
20837 26046 26047 28
20838 26046 26048 28
20839 26046 26049 28
20840 26046 26050 28
20841 26051 26052 28
20842 26051 26053 28
20843 26051 26054 28
20844 26051 26055 28
20845 26056 26057 28
20846 26056 26058 28
20847 26056 26059 28
20848 26056 26060 28
20849 26061 26062 28
20850 26061 26063 28
20851 26061 26064 28
20852 26061 26065 28
20853 26066 26067 28
20854 26066 26068 28
20855 26066 26069 28
20856 26066 26070 28
20857 26071 26072 28
20858 26071 26073 28
20859 26071 26074 28
20860 26071 26075 28
20861 26076 26077 28
20862 26076 26078 28
20863 26076 26079 28
20864 26076 26080 28
20865 26081 26082 28
20866 26081 26083 28
20867 26081 26084 28
20868 26081 26085 28
20869 26086 26087 28
20870 26086 26088 28
20871 26086 26089 28
20872 26086 26090 28
20873 26091 26092 28
20874 26091 26093 28
20875 26091 26094 28
20876 26091 26095 28
20877 26096 26097 28
20878 26096 26098 28
20879 26096 26099 28
20880 26096 26100 28
20881 26101 26102 28
20882 26101 26103 28
20883 26101 26104 28
20884 26101 26105 28
20885 26106 26107 28
20886 26106 26108 28
20887 26106 26109 28
20888 26106 26110 28
20889 26111 26112 28
20890 26111 26113 28
20891 26111 26114 28
20892 26111 26115 28
20893 26116 26117 28
20894 26116 26118 28
20895 26116 26119 28
20896 26116 26120 28
20897 26121 26122 28
20898 26121 26123 28
20899 26121 26124 28
20900 26121 26125 28
20901 26126 26127 28
20902 26126 26128 28
20903 26126 26129 28
20904 26126 26130 28
20905 26131 26132 28
20906 26131 26133 28
20907 26131 26134 28
20908 26131 26135 28
20909 26136 26137 28
20910 26136 26138 28
20911 26136 26139 28
20912 26136 26140 28
20913 26141 26142 28
20914 26141 26143 28
20915 26141 26144 28
20916 26141 26145 28
20917 26146 26147 28
20918 26146 26148 28
20919 26146 26149 28
20920 26146 26150 28
20921 26151 26152 28
20922 26151 26153 28
20923 26151 26154 28
20924 26151 26155 28
20925 26156 26157 28
20926 26156 26158 28
20927 26156 26159 28
20928 26156 26160 28
20929 26161 26162 28
20930 26161 26163 28
20931 26161 26164 28
20932 26161 26165 28
20933 26166 26167 28
20934 26166 26168 28
20935 26166 26169 28
20936 26166 26170 28
20937 26171 26172 28
20938 26171 26173 28
20939 26171 26174 28
20940 26171 26175 28
20941 26176 26177 28
20942 26176 26178 28
20943 26176 26179 28
20944 26176 26180 28
20945 26181 26182 28
20946 26181 26183 28
20947 26181 26184 28
20948 26181 26185 28
20949 26186 26187 28
20950 26186 26188 28
20951 26186 26189 28
20952 26186 26190 28
20953 26191 26192 28
20954 26191 26193 28
20955 26191 26194 28
20956 26191 26195 28
20957 26196 26197 28
20958 26196 26198 28
20959 26196 26199 28
20960 26196 26200 28
20961 26201 26202 28
20962 26201 26203 28
20963 26201 26204 28
20964 26201 26205 28
20965 26206 26207 28
20966 26206 26208 28
20967 26206 26209 28
20968 26206 26210 28
20969 26211 26212 28
20970 26211 26213 28
20971 26211 26214 28
20972 26211 26215 28
20973 26216 26217 28
20974 26216 26218 28
20975 26216 26219 28
20976 26216 26220 28
20977 26221 26222 28
20978 26221 26223 28
20979 26221 26224 28
20980 26221 26225 28
20981 26226 26227 28
20982 26226 26228 28
20983 26226 26229 28
20984 26226 26230 28
20985 26231 26232 28
20986 26231 26233 28
20987 26231 26234 28
20988 26231 26235 28
20989 26236 26237 28
20990 26236 26238 28
20991 26236 26239 28
20992 26236 26240 28
20993 26241 26242 28
20994 26241 26243 28
20995 26241 26244 28
20996 26241 26245 28
20997 26246 26247 28
20998 26246 26248 28
20999 26246 26249 28
21000 26246 26250 28
21001 26251 26252 28
21002 26251 26253 28
21003 26251 26254 28
21004 26251 26255 28
21005 26256 26257 28
21006 26256 26258 28
21007 26256 26259 28
21008 26256 26260 28
21009 26261 26262 28
21010 26261 26263 28
21011 26261 26264 28
21012 26261 26265 28
21013 26266 26267 28
21014 26266 26268 28
21015 26266 26269 28
21016 26266 26270 28
21017 26271 26272 28
21018 26271 26273 28
21019 26271 26274 28
21020 26271 26275 28
21021 26276 26277 28
21022 26276 26278 28
21023 26276 26279 28
21024 26276 26280 28
21025 26281 26282 28
21026 26281 26283 28
21027 26281 26284 28
21028 26281 26285 28
21029 26286 26287 28
21030 26286 26288 28
21031 26286 26289 28
21032 26286 26290 28
21033 26291 26292 28
21034 26291 26293 28
21035 26291 26294 28
21036 26291 26295 28
21037 26296 26297 28
21038 26296 26298 28
21039 26296 26299 28
21040 26296 26300 28
21041 26301 26302 28
21042 26301 26303 28
21043 26301 26304 28
21044 26301 26305 28
21045 26306 26307 28
21046 26306 26308 28
21047 26306 26309 28
21048 26306 26310 28
21049 26311 26312 28
21050 26311 26313 28
21051 26311 26314 28
21052 26311 26315 28
21053 26316 26317 28
21054 26316 26318 28
21055 26316 26319 28
21056 26316 26320 28
21057 26321 26322 28
21058 26321 26323 28
21059 26321 26324 28
21060 26321 26325 28
21061 26326 26327 28
21062 26326 26328 28
21063 26326 26329 28
21064 26326 26330 28
21065 26331 26332 28
21066 26331 26333 28
21067 26331 26334 28
21068 26331 26335 28
21069 26336 26337 28
21070 26336 26338 28
21071 26336 26339 28
21072 26336 26340 28
21073 26341 26342 28
21074 26341 26343 28
21075 26341 26344 28
21076 26341 26345 28
21077 26346 26347 28
21078 26346 26348 28
21079 26346 26349 28
21080 26346 26350 28
21081 26351 26352 28
21082 26351 26353 28
21083 26351 26354 28
21084 26351 26355 28
21085 26356 26357 28
21086 26356 26358 28
21087 26356 26359 28
21088 26356 26360 28
21089 26361 26362 28
21090 26361 26363 28
21091 26361 26364 28
21092 26361 26365 28
21093 26366 26367 28
21094 26366 26368 28
21095 26366 26369 28
21096 26366 26370 28
21097 26371 26372 28
21098 26371 26373 28
21099 26371 26374 28
21100 26371 26375 28
21101 26376 26377 28
21102 26376 26378 28
21103 26376 26379 28
21104 26376 26380 28
21105 26381 26382 28
21106 26381 26383 28
21107 26381 26384 28
21108 26381 26385 28
21109 26386 26387 28
21110 26386 26388 28
21111 26386 26389 28
21112 26386 26390 28
21113 26391 26392 28
21114 26391 26393 28
21115 26391 26394 28
21116 26391 26395 28
21117 26396 26397 28
21118 26396 26398 28
21119 26396 26399 28
21120 26396 26400 28
21121 26401 26402 28
21122 26401 26403 28
21123 26401 26404 28
21124 26401 26405 28
21125 26406 26407 28
21126 26406 26408 28
21127 26406 26409 28
21128 26406 26410 28
21129 26411 26412 28
21130 26411 26413 28
21131 26411 26414 28
21132 26411 26415 28
21133 26416 26417 28
21134 26416 26418 28
21135 26416 26419 28
21136 26416 26420 28
21137 26421 26422 28
21138 26421 26423 28
21139 26421 26424 28
21140 26421 26425 28
21141 26426 26427 28
21142 26426 26428 28
21143 26426 26429 28
21144 26426 26430 28
21145 26431 26432 28
21146 26431 26433 28
21147 26431 26434 28
21148 26431 26435 28
21149 26436 26437 28
21150 26436 26438 28
21151 26436 26439 28
21152 26436 26440 28
21153 26441 26442 28
21154 26441 26443 28
21155 26441 26444 28
21156 26441 26445 28
21157 26446 26447 28
21158 26446 26448 28
21159 26446 26449 28
21160 26446 26450 28
21161 26451 26452 28
21162 26451 26453 28
21163 26451 26454 28
21164 26451 26455 28
21165 26456 26457 28
21166 26456 26458 28
21167 26456 26459 28
21168 26456 26460 28
21169 26461 26462 28
21170 26461 26463 28
21171 26461 26464 28
21172 26461 26465 28
21173 26466 26467 28
21174 26466 26468 28
21175 26466 26469 28
21176 26466 26470 28
21177 26471 26472 28
21178 26471 26473 28
21179 26471 26474 28
21180 26471 26475 28
21181 26476 26477 28
21182 26476 26478 28
21183 26476 26479 28
21184 26476 26480 28
21185 26481 26482 28
21186 26481 26483 28
21187 26481 26484 28
21188 26481 26485 28
21189 26486 26487 28
21190 26486 26488 28
21191 26486 26489 28
21192 26486 26490 28
21193 26491 26492 28
21194 26491 26493 28
21195 26491 26494 28
21196 26491 26495 28
21197 26496 26497 28
21198 26496 26498 28
21199 26496 26499 28
21200 26496 26500 28
21201 26501 26502 28
21202 26501 26503 28
21203 26501 26504 28
21204 26501 26505 28
21205 26506 26507 28
21206 26506 26508 28
21207 26506 26509 28
21208 26506 26510 28
21209 26511 26512 28
21210 26511 26513 28
21211 26511 26514 28
21212 26511 26515 28
21213 26516 26517 28
21214 26516 26518 28
21215 26516 26519 28
21216 26516 26520 28
21217 26521 26522 28
21218 26521 26523 28
21219 26521 26524 28
21220 26521 26525 28
21221 26526 26527 28
21222 26526 26528 28
21223 26526 26529 28
21224 26526 26530 28
21225 26531 26532 28
21226 26531 26533 28
21227 26531 26534 28
21228 26531 26535 28
21229 26536 26537 28
21230 26536 26538 28
21231 26536 26539 28
21232 26536 26540 28
21233 26541 26542 28
21234 26541 26543 28
21235 26541 26544 28
21236 26541 26545 28
21237 26546 26547 28
21238 26546 26548 28
21239 26546 26549 28
21240 26546 26550 28
21241 26551 26552 28
21242 26551 26553 28
21243 26551 26554 28
21244 26551 26555 28
21245 26556 26557 28
21246 26556 26558 28
21247 26556 26559 28
21248 26556 26560 28
21249 26561 26562 28
21250 26561 26563 28
21251 26561 26564 28
21252 26561 26565 28
21253 26566 26567 28
21254 26566 26568 28
21255 26566 26569 28
21256 26566 26570 28
21257 26571 26572 28
21258 26571 26573 28
21259 26571 26574 28
21260 26571 26575 28
21261 26576 26577 28
21262 26576 26578 28
21263 26576 26579 28
21264 26576 26580 28
21265 26581 26582 28
21266 26581 26583 28
21267 26581 26584 28
21268 26581 26585 28
21269 26586 26587 28
21270 26586 26588 28
21271 26586 26589 28
21272 26586 26590 28
21273 26591 26592 28
21274 26591 26593 28
21275 26591 26594 28
21276 26591 26595 28
21277 26596 26597 28
21278 26596 26598 28
21279 26596 26599 28
21280 26596 26600 28
21281 26601 26602 28
21282 26601 26603 28
21283 26601 26604 28
21284 26601 26605 28
21285 26606 26607 28
21286 26606 26608 28
21287 26606 26609 28
21288 26606 26610 28
21289 26611 26612 28
21290 26611 26613 28
21291 26611 26614 28
21292 26611 26615 28
21293 26616 26617 28
21294 26616 26618 28
21295 26616 26619 28
21296 26616 26620 28
21297 26621 26622 28
21298 26621 26623 28
21299 26621 26624 28
21300 26621 26625 28
21301 26626 26627 28
21302 26626 26628 28
21303 26626 26629 28
21304 26626 26630 28
21305 26631 26632 28
21306 26631 26633 28
21307 26631 26634 28
21308 26631 26635 28
21309 26636 26637 28
21310 26636 26638 28
21311 26636 26639 28
21312 26636 26640 28
21313 26641 26642 28
21314 26641 26643 28
21315 26641 26644 28
21316 26641 26645 28
21317 26646 26647 28
21318 26646 26648 28
21319 26646 26649 28
21320 26646 26650 28
21321 26651 26652 28
21322 26651 26653 28
21323 26651 26654 28
21324 26651 26655 28
21325 26656 26657 28
21326 26656 26658 28
21327 26656 26659 28
21328 26656 26660 28
21329 26661 26662 28
21330 26661 26663 28
21331 26661 26664 28
21332 26661 26665 28
21333 26666 26667 28
21334 26666 26668 28
21335 26666 26669 28
21336 26666 26670 28
21337 26671 26672 28
21338 26671 26673 28
21339 26671 26674 28
21340 26671 26675 28
21341 26676 26677 28
21342 26676 26678 28
21343 26676 26679 28
21344 26676 26680 28
21345 26681 26682 28
21346 26681 26683 28
21347 26681 26684 28
21348 26681 26685 28
21349 26686 26687 28
21350 26686 26688 28
21351 26686 26689 28
21352 26686 26690 28
21353 26691 26692 28
21354 26691 26693 28
21355 26691 26694 28
21356 26691 26695 28
21357 26696 26697 28
21358 26696 26698 28
21359 26696 26699 28
21360 26696 26700 28
21361 26701 26702 28
21362 26701 26703 28
21363 26701 26704 28
21364 26701 26705 28
21365 26706 26707 28
21366 26706 26708 28
21367 26706 26709 28
21368 26706 26710 28
21369 26711 26712 28
21370 26711 26713 28
21371 26711 26714 28
21372 26711 26715 28
21373 26716 26717 28
21374 26716 26718 28
21375 26716 26719 28
21376 26716 26720 28
21377 26721 26722 28
21378 26721 26723 28
21379 26721 26724 28
21380 26721 26725 28
21381 26726 26727 28
21382 26726 26728 28
21383 26726 26729 28
21384 26726 26730 28
21385 26731 26732 28
21386 26731 26733 28
21387 26731 26734 28
21388 26731 26735 28
21389 26736 26737 28
21390 26736 26738 28
21391 26736 26739 28
21392 26736 26740 28
21393 26741 26742 28
21394 26741 26743 28
21395 26741 26744 28
21396 26741 26745 28
21397 26746 26747 28
21398 26746 26748 28
21399 26746 26749 28
21400 26746 26750 28
21401 26751 26752 28
21402 26751 26753 28
21403 26751 26754 28
21404 26751 26755 28
21405 26756 26757 28
21406 26756 26758 28
21407 26756 26759 28
21408 26756 26760 28
21409 26761 26762 28
21410 26761 26763 28
21411 26761 26764 28
21412 26761 26765 28
21413 26766 26767 28
21414 26766 26768 28
21415 26766 26769 28
21416 26766 26770 28
21417 26771 26772 28
21418 26771 26773 28
21419 26771 26774 28
21420 26771 26775 28
21421 26776 26777 28
21422 26776 26778 28
21423 26776 26779 28
21424 26776 26780 28
21425 26781 26782 28
21426 26781 26783 28
21427 26781 26784 28
21428 26781 26785 28
21429 26786 26787 28
21430 26786 26788 28
21431 26786 26789 28
21432 26786 26790 28
21433 26791 26792 28
21434 26791 26793 28
21435 26791 26794 28
21436 26791 26795 28
21437 26796 26797 28
21438 26796 26798 28
21439 26796 26799 28
21440 26796 26800 28
21441 26801 26802 28
21442 26801 26803 28
21443 26801 26804 28
21444 26801 26805 28
21445 26806 26807 28
21446 26806 26808 28
21447 26806 26809 28
21448 26806 26810 28
21449 26811 26812 28
21450 26811 26813 28
21451 26811 26814 28
21452 26811 26815 28
21453 26816 26817 28
21454 26816 26818 28
21455 26816 26819 28
21456 26816 26820 28
21457 26821 26822 28
21458 26821 26823 28
21459 26821 26824 28
21460 26821 26825 28
21461 26826 26827 28
21462 26826 26828 28
21463 26826 26829 28
21464 26826 26830 28
21465 26831 26832 28
21466 26831 26833 28
21467 26831 26834 28
21468 26831 26835 28
21469 26836 26837 28
21470 26836 26838 28
21471 26836 26839 28
21472 26836 26840 28
21473 26841 26842 28
21474 26841 26843 28
21475 26841 26844 28
21476 26841 26845 28
21477 26846 26847 28
21478 26846 26848 28
21479 26846 26849 28
21480 26846 26850 28
21481 26851 26852 28
21482 26851 26853 28
21483 26851 26854 28
21484 26851 26855 28
21485 26856 26857 28
21486 26856 26858 28
21487 26856 26859 28
21488 26856 26860 28
21489 26861 26862 28
21490 26861 26863 28
21491 26861 26864 28
21492 26861 26865 28
21493 26866 26867 28
21494 26866 26868 28
21495 26866 26869 28
21496 26866 26870 28
21497 26871 26872 28
21498 26871 26873 28
21499 26871 26874 28
21500 26871 26875 28
21501 26876 26877 28
21502 26876 26878 28
21503 26876 26879 28
21504 26876 26880 28
21505 26881 26882 28
21506 26881 26883 28
21507 26881 26884 28
21508 26881 26885 28
21509 26886 26887 28
21510 26886 26888 28
21511 26886 26889 28
21512 26886 26890 28
21513 26891 26892 28
21514 26891 26893 28
21515 26891 26894 28
21516 26891 26895 28
21517 26896 26897 28
21518 26896 26898 28
21519 26896 26899 28
21520 26896 26900 28
21521 26901 26902 28
21522 26901 26903 28
21523 26901 26904 28
21524 26901 26905 28
21525 26906 26907 28
21526 26906 26908 28
21527 26906 26909 28
21528 26906 26910 28
21529 26911 26912 28
21530 26911 26913 28
21531 26911 26914 28
21532 26911 26915 28
21533 26916 26917 28
21534 26916 26918 28
21535 26916 26919 28
21536 26916 26920 28
21537 26921 26922 28
21538 26921 26923 28
21539 26921 26924 28
21540 26921 26925 28
21541 26926 26927 28
21542 26926 26928 28
21543 26926 26929 28
21544 26926 26930 28
21545 26931 26932 28
21546 26931 26933 28
21547 26931 26934 28
21548 26931 26935 28
21549 26936 26937 28
21550 26936 26938 28
21551 26936 26939 28
21552 26936 26940 28
21553 26941 26942 28
21554 26941 26943 28
21555 26941 26944 28
21556 26941 26945 28
21557 26946 26947 28
21558 26946 26948 28
21559 26946 26949 28
21560 26946 26950 28
21561 26951 26952 28
21562 26951 26953 28
21563 26951 26954 28
21564 26951 26955 28
21565 26956 26957 28
21566 26956 26958 28
21567 26956 26959 28
21568 26956 26960 28
21569 26961 26962 28
21570 26961 26963 28
21571 26961 26964 28
21572 26961 26965 28
21573 26966 26967 28
21574 26966 26968 28
21575 26966 26969 28
21576 26966 26970 28
21577 26971 26972 28
21578 26971 26973 28
21579 26971 26974 28
21580 26971 26975 28
21581 26976 26977 28
21582 26976 26978 28
21583 26976 26979 28
21584 26976 26980 28
21585 26981 26982 28
21586 26981 26983 28
21587 26981 26984 28
21588 26981 26985 28
21589 26986 26987 28
21590 26986 26988 28
21591 26986 26989 28
21592 26986 26990 28
21593 26991 26992 28
21594 26991 26993 28
21595 26991 26994 28
21596 26991 26995 28
21597 26996 26997 28
21598 26996 26998 28
21599 26996 26999 28
21600 26996 27000 28
21601 27001 27002 28
21602 27001 27003 28
21603 27001 27004 28
21604 27001 27005 28
21605 27006 27007 28
21606 27006 27008 28
21607 27006 27009 28
21608 27006 27010 28
21609 27011 27012 28
21610 27011 27013 28
21611 27011 27014 28
21612 27011 27015 28
21613 27016 27017 28
21614 27016 27018 28
21615 27016 27019 28
21616 27016 27020 28
21617 27021 27022 28
21618 27021 27023 28
21619 27021 27024 28
21620 27021 27025 28
21621 27026 27027 28
21622 27026 27028 28
21623 27026 27029 28
21624 27026 27030 28
21625 27031 27032 28
21626 27031 27033 28
21627 27031 27034 28
21628 27031 27035 28
21629 27036 27037 28
21630 27036 27038 28
21631 27036 27039 28
21632 27036 27040 28
21633 27041 27042 28
21634 27041 27043 28
21635 27041 27044 28
21636 27041 27045 28
21637 27046 27047 28
21638 27046 27048 28
21639 27046 27049 28
21640 27046 27050 28
21641 27051 27052 28
21642 27051 27053 28
21643 27051 27054 28
21644 27051 27055 28
21645 27056 27057 28
21646 27056 27058 28
21647 27056 27059 28
21648 27056 27060 28
21649 27061 27062 28
21650 27061 27063 28
21651 27061 27064 28
21652 27061 27065 28
21653 27066 27067 28
21654 27066 27068 28
21655 27066 27069 28
21656 27066 27070 28
21657 27071 27072 28
21658 27071 27073 28
21659 27071 27074 28
21660 27071 27075 28
21661 27076 27077 28
21662 27076 27078 28
21663 27076 27079 28
21664 27076 27080 28
21665 27081 27082 28
21666 27081 27083 28
21667 27081 27084 28
21668 27081 27085 28
21669 27086 27087 28
21670 27086 27088 28
21671 27086 27089 28
21672 27086 27090 28
21673 27091 27092 28
21674 27091 27093 28
21675 27091 27094 28
21676 27091 27095 28
21677 27096 27097 28
21678 27096 27098 28
21679 27096 27099 28
21680 27096 27100 28
21681 27101 27102 28
21682 27101 27103 28
21683 27101 27104 28
21684 27101 27105 28
21685 27106 27107 28
21686 27106 27108 28
21687 27106 27109 28
21688 27106 27110 28
21689 27111 27112 28
21690 27111 27113 28
21691 27111 27114 28
21692 27111 27115 28
21693 27116 27117 28
21694 27116 27118 28
21695 27116 27119 28
21696 27116 27120 28
21697 27121 27122 28
21698 27121 27123 28
21699 27121 27124 28
21700 27121 27125 28
21701 27126 27127 28
21702 27126 27128 28
21703 27126 27129 28
21704 27126 27130 28
21705 27131 27132 28
21706 27131 27133 28
21707 27131 27134 28
21708 27131 27135 28
21709 27136 27137 28
21710 27136 27138 28
21711 27136 27139 28
21712 27136 27140 28
21713 27141 27142 28
21714 27141 27143 28
21715 27141 27144 28
21716 27141 27145 28
21717 27146 27147 28
21718 27146 27148 28
21719 27146 27149 28
21720 27146 27150 28
21721 27151 27152 28
21722 27151 27153 28
21723 27151 27154 28
21724 27151 27155 28
21725 27156 27157 28
21726 27156 27158 28
21727 27156 27159 28
21728 27156 27160 28
21729 27161 27162 28
21730 27161 27163 28
21731 27161 27164 28
21732 27161 27165 28
21733 27166 27167 28
21734 27166 27168 28
21735 27166 27169 28
21736 27166 27170 28
21737 27171 27172 28
21738 27171 27173 28
21739 27171 27174 28
21740 27171 27175 28
21741 27176 27177 28
21742 27176 27178 28
21743 27176 27179 28
21744 27176 27180 28
21745 27181 27182 28
21746 27181 27183 28
21747 27181 27184 28
21748 27181 27185 28
21749 27186 27187 28
21750 27186 27188 28
21751 27186 27189 28
21752 27186 27190 28
21753 27191 27192 28
21754 27191 27193 28
21755 27191 27194 28
21756 27191 27195 28
21757 27196 27197 28
21758 27196 27198 28
21759 27196 27199 28
21760 27196 27200 28
21761 27201 27202 28
21762 27201 27203 28
21763 27201 27204 28
21764 27201 27205 28
21765 27206 27207 28
21766 27206 27208 28
21767 27206 27209 28
21768 27206 27210 28
21769 27211 27212 28
21770 27211 27213 28
21771 27211 27214 28
21772 27211 27215 28
21773 27216 27217 28
21774 27216 27218 28
21775 27216 27219 28
21776 27216 27220 28
21777 27221 27222 28
21778 27221 27223 28
21779 27221 27224 28
21780 27221 27225 28
21781 27226 27227 28
21782 27226 27228 28
21783 27226 27229 28
21784 27226 27230 28
21785 27231 27232 28
21786 27231 27233 28
21787 27231 27234 28
21788 27231 27235 28
21789 27236 27237 28
21790 27236 27238 28
21791 27236 27239 28
21792 27236 27240 28
21793 27241 27242 28
21794 27241 27243 28
21795 27241 27244 28
21796 27241 27245 28
21797 27246 27247 28
21798 27246 27248 28
21799 27246 27249 28
21800 27246 27250 28
21801 27251 27252 28
21802 27251 27253 28
21803 27251 27254 28
21804 27251 27255 28
21805 27256 27257 28
21806 27256 27258 28
21807 27256 27259 28
21808 27256 27260 28
21809 27261 27262 28
21810 27261 27263 28
21811 27261 27264 28
21812 27261 27265 28
21813 27266 27267 28
21814 27266 27268 28
21815 27266 27269 28
21816 27266 27270 28
21817 27271 27272 28
21818 27271 27273 28
21819 27271 27274 28
21820 27271 27275 28
21821 27276 27277 28
21822 27276 27278 28
21823 27276 27279 28
21824 27276 27280 28
21825 27281 27282 28
21826 27281 27283 28
21827 27281 27284 28
21828 27281 27285 28
21829 27286 27287 28
21830 27286 27288 28
21831 27286 27289 28
21832 27286 27290 28
21833 27291 27292 28
21834 27291 27293 28
21835 27291 27294 28
21836 27291 27295 28
21837 27296 27297 28
21838 27296 27298 28
21839 27296 27299 28
21840 27296 27300 28
21841 27301 27302 28
21842 27301 27303 28
21843 27301 27304 28
21844 27301 27305 28
21845 27306 27307 28
21846 27306 27308 28
21847 27306 27309 28
21848 27306 27310 28
21849 27311 27312 28
21850 27311 27313 28
21851 27311 27314 28
21852 27311 27315 28
21853 27316 27317 28
21854 27316 27318 28
21855 27316 27319 28
21856 27316 27320 28
21857 27321 27322 28
21858 27321 27323 28
21859 27321 27324 28
21860 27321 27325 28
21861 27326 27327 28
21862 27326 27328 28
21863 27326 27329 28
21864 27326 27330 28
21865 27331 27332 28
21866 27331 27333 28
21867 27331 27334 28
21868 27331 27335 28
21869 27336 27337 28
21870 27336 27338 28
21871 27336 27339 28
21872 27336 27340 28
21873 27341 27342 28
21874 27341 27343 28
21875 27341 27344 28
21876 27341 27345 28
21877 27346 27347 28
21878 27346 27348 28
21879 27346 27349 28
21880 27346 27350 28
21881 27351 27352 28
21882 27351 27353 28
21883 27351 27354 28
21884 27351 27355 28
21885 27356 27357 28
21886 27356 27358 28
21887 27356 27359 28
21888 27356 27360 28
21889 27361 27362 28
21890 27361 27363 28
21891 27361 27364 28
21892 27361 27365 28
21893 27366 27367 28
21894 27366 27368 28
21895 27366 27369 28
21896 27366 27370 28
21897 27371 27372 28
21898 27371 27373 28
21899 27371 27374 28
21900 27371 27375 28
21901 27376 27377 28
21902 27376 27378 28
21903 27376 27379 28
21904 27376 27380 28
21905 27381 27382 28
21906 27381 27383 28
21907 27381 27384 28
21908 27381 27385 28
21909 27386 27387 28
21910 27386 27388 28
21911 27386 27389 28
21912 27386 27390 28
21913 27391 27392 28
21914 27391 27393 28
21915 27391 27394 28
21916 27391 27395 28
21917 27396 27397 28
21918 27396 27398 28
21919 27396 27399 28
21920 27396 27400 28
21921 27401 27402 28
21922 27401 27403 28
21923 27401 27404 28
21924 27401 27405 28
21925 27406 27407 28
21926 27406 27408 28
21927 27406 27409 28
21928 27406 27410 28
21929 27411 27412 28
21930 27411 27413 28
21931 27411 27414 28
21932 27411 27415 28
21933 27416 27417 28
21934 27416 27418 28
21935 27416 27419 28
21936 27416 27420 28
21937 27421 27422 28
21938 27421 27423 28
21939 27421 27424 28
21940 27421 27425 28
21941 27426 27427 28
21942 27426 27428 28
21943 27426 27429 28
21944 27426 27430 28
21945 27431 27432 28
21946 27431 27433 28
21947 27431 27434 28
21948 27431 27435 28
21949 27436 27437 28
21950 27436 27438 28
21951 27436 27439 28
21952 27436 27440 28
21953 27441 27442 28
21954 27441 27443 28
21955 27441 27444 28
21956 27441 27445 28
21957 27446 27447 28
21958 27446 27448 28
21959 27446 27449 28
21960 27446 27450 28
21961 27451 27452 28
21962 27451 27453 28
21963 27451 27454 28
21964 27451 27455 28
21965 27456 27457 28
21966 27456 27458 28
21967 27456 27459 28
21968 27456 27460 28
21969 27461 27462 28
21970 27461 27463 28
21971 27461 27464 28
21972 27461 27465 28
21973 27466 27467 28
21974 27466 27468 28
21975 27466 27469 28
21976 27466 27470 28
21977 27471 27472 28
21978 27471 27473 28
21979 27471 27474 28
21980 27471 27475 28
21981 27476 27477 28
21982 27476 27478 28
21983 27476 27479 28
21984 27476 27480 28
21985 27481 27482 28
21986 27481 27483 28
21987 27481 27484 28
21988 27481 27485 28
21989 27486 27487 28
21990 27486 27488 28
21991 27486 27489 28
21992 27486 27490 28
21993 27491 27492 28
21994 27491 27493 28
21995 27491 27494 28
21996 27491 27495 28
21997 27496 27497 28
21998 27496 27498 28
21999 27496 27499 28
22000 27496 27500 28
22001 27501 27502 28
22002 27501 27503 28
22003 27501 27504 28
22004 27501 27505 28
22005 27506 27507 28
22006 27506 27508 28
22007 27506 27509 28
22008 27506 27510 28
22009 27511 27512 28
22010 27511 27513 28
22011 27511 27514 28
22012 27511 27515 28
22013 27516 27517 28
22014 27516 27518 28
22015 27516 27519 28
22016 27516 27520 28
22017 27521 27522 28
22018 27521 27523 28
22019 27521 27524 28
22020 27521 27525 28
22021 27526 27527 28
22022 27526 27528 28
22023 27526 27529 28
22024 27526 27530 28
22025 27531 27532 28
22026 27531 27533 28
22027 27531 27534 28
22028 27531 27535 28
22029 27536 27537 28
22030 27536 27538 28
22031 27536 27539 28
22032 27536 27540 28
22033 27541 27542 28
22034 27541 27543 28
22035 27541 27544 28
22036 27541 27545 28
22037 27546 27547 28
22038 27546 27548 28
22039 27546 27549 28
22040 27546 27550 28
22041 27551 27552 28
22042 27551 27553 28
22043 27551 27554 28
22044 27551 27555 28
22045 27556 27557 28
22046 27556 27558 28
22047 27556 27559 28
22048 27556 27560 28
22049 27561 27562 28
22050 27561 27563 28
22051 27561 27564 28
22052 27561 27565 28
22053 27566 27567 28
22054 27566 27568 28
22055 27566 27569 28
22056 27566 27570 28
22057 27571 27572 28
22058 27571 27573 28
22059 27571 27574 28
22060 27571 27575 28
22061 27576 27577 28
22062 27576 27578 28
22063 27576 27579 28
22064 27576 27580 28
22065 27581 27582 28
22066 27581 27583 28
22067 27581 27584 28
22068 27581 27585 28
22069 27586 27587 28
22070 27586 27588 28
22071 27586 27589 28
22072 27586 27590 28
22073 27591 27592 28
22074 27591 27593 28
22075 27591 27594 28
22076 27591 27595 28
22077 27596 27597 28
22078 27596 27598 28
22079 27596 27599 28
22080 27596 27600 28
22081 27601 27602 28
22082 27601 27603 28
22083 27601 27604 28
22084 27601 27605 28
22085 27606 27607 28
22086 27606 27608 28
22087 27606 27609 28
22088 27606 27610 28
22089 27611 27612 28
22090 27611 27613 28
22091 27611 27614 28
22092 27611 27615 28
22093 27616 27617 28
22094 27616 27618 28
22095 27616 27619 28
22096 27616 27620 28
22097 27621 27622 28
22098 27621 27623 28
22099 27621 27624 28
22100 27621 27625 28
22101 27626 27627 28
22102 27626 27628 28
22103 27626 27629 28
22104 27626 27630 28
22105 27631 27632 28
22106 27631 27633 28
22107 27631 27634 28
22108 27631 27635 28
22109 27636 27637 28
22110 27636 27638 28
22111 27636 27639 28
22112 27636 27640 28
22113 27641 27642 28
22114 27641 27643 28
22115 27641 27644 28
22116 27641 27645 28
22117 27646 27647 28
22118 27646 27648 28
22119 27646 27649 28
22120 27646 27650 28
22121 27651 27652 28
22122 27651 27653 28
22123 27651 27654 28
22124 27651 27655 28
22125 27656 27657 28
22126 27656 27658 28
22127 27656 27659 28
22128 27656 27660 28
22129 27661 27662 28
22130 27661 27663 28
22131 27661 27664 28
22132 27661 27665 28
22133 27666 27667 28
22134 27666 27668 28
22135 27666 27669 28
22136 27666 27670 28
22137 27671 27672 28
22138 27671 27673 28
22139 27671 27674 28
22140 27671 27675 28
22141 27676 27677 28
22142 27676 27678 28
22143 27676 27679 28
22144 27676 27680 28
22145 27681 27682 28
22146 27681 27683 28
22147 27681 27684 28
22148 27681 27685 28
22149 27686 27687 28
22150 27686 27688 28
22151 27686 27689 28
22152 27686 27690 28
22153 27691 27692 28
22154 27691 27693 28
22155 27691 27694 28
22156 27691 27695 28
22157 27696 27697 28
22158 27696 27698 28
22159 27696 27699 28
22160 27696 27700 28
22161 27701 27702 28
22162 27701 27703 28
22163 27701 27704 28
22164 27701 27705 28
22165 27706 27707 28
22166 27706 27708 28
22167 27706 27709 28
22168 27706 27710 28
22169 27711 27712 28
22170 27711 27713 28
22171 27711 27714 28
22172 27711 27715 28
22173 27716 27717 28
22174 27716 27718 28
22175 27716 27719 28
22176 27716 27720 28
22177 27721 27722 28
22178 27721 27723 28
22179 27721 27724 28
22180 27721 27725 28
22181 27726 27727 28
22182 27726 27728 28
22183 27726 27729 28
22184 27726 27730 28
22185 27731 27732 28
22186 27731 27733 28
22187 27731 27734 28
22188 27731 27735 28
22189 27736 27737 28
22190 27736 27738 28
22191 27736 27739 28
22192 27736 27740 28
22193 27741 27742 28
22194 27741 27743 28
22195 27741 27744 28
22196 27741 27745 28
22197 27746 27747 28
22198 27746 27748 28
22199 27746 27749 28
22200 27746 27750 28
22201 27751 27752 28
22202 27751 27753 28
22203 27751 27754 28
22204 27751 27755 28
22205 27756 27757 28
22206 27756 27758 28
22207 27756 27759 28
22208 27756 27760 28
22209 27761 27762 28
22210 27761 27763 28
22211 27761 27764 28
22212 27761 27765 28
22213 27766 27767 28
22214 27766 27768 28
22215 27766 27769 28
22216 27766 27770 28
22217 27771 27772 28
22218 27771 27773 28
22219 27771 27774 28
22220 27771 27775 28
22221 27776 27777 28
22222 27776 27778 28
22223 27776 27779 28
22224 27776 27780 28
22225 27781 27782 28
22226 27781 27783 28
22227 27781 27784 28
22228 27781 27785 28
22229 27786 27787 28
22230 27786 27788 28
22231 27786 27789 28
22232 27786 27790 28
22233 27791 27792 28
22234 27791 27793 28
22235 27791 27794 28
22236 27791 27795 28
22237 27796 27797 28
22238 27796 27798 28
22239 27796 27799 28
22240 27796 27800 28
22241 27801 27802 28
22242 27801 27803 28
22243 27801 27804 28
22244 27801 27805 28
22245 27806 27807 28
22246 27806 27808 28
22247 27806 27809 28
22248 27806 27810 28
22249 27811 27812 28
22250 27811 27813 28
22251 27811 27814 28
22252 27811 27815 28
22253 27816 27817 28
22254 27816 27818 28
22255 27816 27819 28
22256 27816 27820 28
22257 27821 27822 28
22258 27821 27823 28
22259 27821 27824 28
22260 27821 27825 28
22261 27826 27827 28
22262 27826 27828 28
22263 27826 27829 28
22264 27826 27830 28
22265 27831 27832 28
22266 27831 27833 28
22267 27831 27834 28
22268 27831 27835 28
22269 27836 27837 28
22270 27836 27838 28
22271 27836 27839 28
22272 27836 27840 28
22273 27841 27842 28
22274 27841 27843 28
22275 27841 27844 28
22276 27841 27845 28
22277 27846 27847 28
22278 27846 27848 28
22279 27846 27849 28
22280 27846 27850 28
22281 27851 27852 28
22282 27851 27853 28
22283 27851 27854 28
22284 27851 27855 28
22285 27856 27857 28
22286 27856 27858 28
22287 27856 27859 28
22288 27856 27860 28
22289 27861 27862 28
22290 27861 27863 28
22291 27861 27864 28
22292 27861 27865 28
22293 27866 27867 28
22294 27866 27868 28
22295 27866 27869 28
22296 27866 27870 28
22297 27871 27872 28
22298 27871 27873 28
22299 27871 27874 28
22300 27871 27875 28
22301 27876 27877 28
22302 27876 27878 28
22303 27876 27879 28
22304 27876 27880 28
22305 27881 27882 28
22306 27881 27883 28
22307 27881 27884 28
22308 27881 27885 28
22309 27886 27887 28
22310 27886 27888 28
22311 27886 27889 28
22312 27886 27890 28
22313 27891 27892 28
22314 27891 27893 28
22315 27891 27894 28
22316 27891 27895 28
22317 27896 27897 28
22318 27896 27898 28
22319 27896 27899 28
22320 27896 27900 28
22321 27901 27902 28
22322 27901 27903 28
22323 27901 27904 28
22324 27901 27905 28
22325 27906 27907 28
22326 27906 27908 28
22327 27906 27909 28
22328 27906 27910 28
22329 27911 27912 28
22330 27911 27913 28
22331 27911 27914 28
22332 27911 27915 28
22333 27916 27917 28
22334 27916 27918 28
22335 27916 27919 28
22336 27916 27920 28
22337 27921 27922 28
22338 27921 27923 28
22339 27921 27924 28
22340 27921 27925 28
22341 27926 27927 28
22342 27926 27928 28
22343 27926 27929 28
22344 27926 27930 28
22345 27931 27932 28
22346 27931 27933 28
22347 27931 27934 28
22348 27931 27935 28
22349 27936 27937 28
22350 27936 27938 28
22351 27936 27939 28
22352 27936 27940 28
22353 27941 27942 28
22354 27941 27943 28
22355 27941 27944 28
22356 27941 27945 28
22357 27946 27947 28
22358 27946 27948 28
22359 27946 27949 28
22360 27946 27950 28
22361 27951 27952 28
22362 27951 27953 28
22363 27951 27954 28
22364 27951 27955 28
22365 27956 27957 28
22366 27956 27958 28
22367 27956 27959 28
22368 27956 27960 28
22369 27961 27962 28
22370 27961 27963 28
22371 27961 27964 28
22372 27961 27965 28
22373 27966 27967 28
22374 27966 27968 28
22375 27966 27969 28
22376 27966 27970 28
22377 27971 27972 28
22378 27971 27973 28
22379 27971 27974 28
22380 27971 27975 28
22381 27976 27977 28
22382 27976 27978 28
22383 27976 27979 28
22384 27976 27980 28
22385 27981 27982 28
22386 27981 27983 28
22387 27981 27984 28
22388 27981 27985 28
22389 27986 27987 28
22390 27986 27988 28
22391 27986 27989 28
22392 27986 27990 28
22393 27991 27992 28
22394 27991 27993 28
22395 27991 27994 28
22396 27991 27995 28
22397 27996 27997 28
22398 27996 27998 28
22399 27996 27999 28
22400 27996 28000 28
22401 28001 28002 28
22402 28001 28003 28
22403 28001 28004 28
22404 28001 28005 28
22405 28006 28007 28
22406 28006 28008 28
22407 28006 28009 28
22408 28006 28010 28
22409 28011 28012 28
22410 28011 28013 28
22411 28011 28014 28
22412 28011 28015 28
22413 28016 28017 28
22414 28016 28018 28
22415 28016 28019 28
22416 28016 28020 28
22417 28021 28022 28
22418 28021 28023 28
22419 28021 28024 28
22420 28021 28025 28
22421 28026 28027 28
22422 28026 28028 28
22423 28026 28029 28
22424 28026 28030 28
22425 28031 28032 28
22426 28031 28033 28
22427 28031 28034 28
22428 28031 28035 28
22429 28036 28037 28
22430 28036 28038 28
22431 28036 28039 28
22432 28036 28040 28
22433 28041 28042 28
22434 28041 28043 28
22435 28041 28044 28
22436 28041 28045 28
22437 28046 28047 28
22438 28046 28048 28
22439 28046 28049 28
22440 28046 28050 28
22441 28051 28052 28
22442 28051 28053 28
22443 28051 28054 28
22444 28051 28055 28
22445 28056 28057 28
22446 28056 28058 28
22447 28056 28059 28
22448 28056 28060 28
22449 28061 28062 28
22450 28061 28063 28
22451 28061 28064 28
22452 28061 28065 28
22453 28066 28067 28
22454 28066 28068 28
22455 28066 28069 28
22456 28066 28070 28
22457 28071 28072 28
22458 28071 28073 28
22459 28071 28074 28
22460 28071 28075 28
22461 28076 28077 28
22462 28076 28078 28
22463 28076 28079 28
22464 28076 28080 28
22465 28081 28082 28
22466 28081 28083 28
22467 28081 28084 28
22468 28081 28085 28
22469 28086 28087 28
22470 28086 28088 28
22471 28086 28089 28
22472 28086 28090 28
22473 28091 28092 28
22474 28091 28093 28
22475 28091 28094 28
22476 28091 28095 28
22477 28096 28097 28
22478 28096 28098 28
22479 28096 28099 28
22480 28096 28100 28
22481 28101 28102 28
22482 28101 28103 28
22483 28101 28104 28
22484 28101 28105 28
22485 28106 28107 28
22486 28106 28108 28
22487 28106 28109 28
22488 28106 28110 28
22489 28111 28112 28
22490 28111 28113 28
22491 28111 28114 28
22492 28111 28115 28
22493 28116 28117 28
22494 28116 28118 28
22495 28116 28119 28
22496 28116 28120 28
22497 28121 28122 28
22498 28121 28123 28
22499 28121 28124 28
22500 28121 28125 28
22501 28126 28127 28
22502 28126 28128 28
22503 28126 28129 28
22504 28126 28130 28
22505 28131 28132 28
22506 28131 28133 28
22507 28131 28134 28
22508 28131 28135 28
22509 28136 28137 28
22510 28136 28138 28
22511 28136 28139 28
22512 28136 28140 28
22513 28141 28142 28
22514 28141 28143 28
22515 28141 28144 28
22516 28141 28145 28
22517 28146 28147 28
22518 28146 28148 28
22519 28146 28149 28
22520 28146 28150 28
22521 28151 28152 28
22522 28151 28153 28
22523 28151 28154 28
22524 28151 28155 28
22525 28156 28157 28
22526 28156 28158 28
22527 28156 28159 28
22528 28156 28160 28
22529 28161 28162 28
22530 28161 28163 28
22531 28161 28164 28
22532 28161 28165 28
22533 28166 28167 28
22534 28166 28168 28
22535 28166 28169 28
22536 28166 28170 28
22537 28171 28172 28
22538 28171 28173 28
22539 28171 28174 28
22540 28171 28175 28
22541 28176 28177 28
22542 28176 28178 28
22543 28176 28179 28
22544 28176 28180 28
22545 28181 28182 28
22546 28181 28183 28
22547 28181 28184 28
22548 28181 28185 28
22549 28186 28187 28
22550 28186 28188 28
22551 28186 28189 28
22552 28186 28190 28
22553 28191 28192 28
22554 28191 28193 28
22555 28191 28194 28
22556 28191 28195 28
22557 28196 28197 28
22558 28196 28198 28
22559 28196 28199 28
22560 28196 28200 28
22561 28201 28202 28
22562 28201 28203 28
22563 28201 28204 28
22564 28201 28205 28
22565 28206 28207 28
22566 28206 28208 28
22567 28206 28209 28
22568 28206 28210 28
22569 28211 28212 28
22570 28211 28213 28
22571 28211 28214 28
22572 28211 28215 28
22573 28216 28217 28
22574 28216 28218 28
22575 28216 28219 28
22576 28216 28220 28
22577 28221 28222 28
22578 28221 28223 28
22579 28221 28224 28
22580 28221 28225 28
22581 28226 28227 28
22582 28226 28228 28
22583 28226 28229 28
22584 28226 28230 28
22585 28231 28232 28
22586 28231 28233 28
22587 28231 28234 28
22588 28231 28235 28
22589 28236 28237 28
22590 28236 28238 28
22591 28236 28239 28
22592 28236 28240 28
22593 28241 28242 28
22594 28241 28243 28
22595 28241 28244 28
22596 28241 28245 28
22597 28246 28247 28
22598 28246 28248 28
22599 28246 28249 28
22600 28246 28250 28
22601 28251 28252 28
22602 28251 28253 28
22603 28251 28254 28
22604 28251 28255 28
22605 28256 28257 28
22606 28256 28258 28
22607 28256 28259 28
22608 28256 28260 28
22609 28261 28262 28
22610 28261 28263 28
22611 28261 28264 28
22612 28261 28265 28
22613 28266 28267 28
22614 28266 28268 28
22615 28266 28269 28
22616 28266 28270 28
22617 28271 28272 28
22618 28271 28273 28
22619 28271 28274 28
22620 28271 28275 28
22621 28276 28277 28
22622 28276 28278 28
22623 28276 28279 28
22624 28276 28280 28
22625 28281 28282 28
22626 28281 28283 28
22627 28281 28284 28
22628 28281 28285 28
22629 28286 28287 28
22630 28286 28288 28
22631 28286 28289 28
22632 28286 28290 28
22633 28291 28292 28
22634 28291 28293 28
22635 28291 28294 28
22636 28291 28295 28
22637 28296 28297 28
22638 28296 28298 28
22639 28296 28299 28
22640 28296 28300 28
22641 28301 28302 28
22642 28301 28303 28
22643 28301 28304 28
22644 28301 28305 28
22645 28306 28307 28
22646 28306 28308 28
22647 28306 28309 28
22648 28306 28310 28
22649 28311 28312 28
22650 28311 28313 28
22651 28311 28314 28
22652 28311 28315 28
22653 28316 28317 28
22654 28316 28318 28
22655 28316 28319 28
22656 28316 28320 28
22657 28321 28322 28
22658 28321 28323 28
22659 28321 28324 28
22660 28321 28325 28
22661 28326 28327 28
22662 28326 28328 28
22663 28326 28329 28
22664 28326 28330 28
22665 28331 28332 28
22666 28331 28333 28
22667 28331 28334 28
22668 28331 28335 28
22669 28336 28337 28
22670 28336 28338 28
22671 28336 28339 28
22672 28336 28340 28
22673 28341 28342 28
22674 28341 28343 28
22675 28341 28344 28
22676 28341 28345 28
22677 28346 28347 28
22678 28346 28348 28
22679 28346 28349 28
22680 28346 28350 28
22681 28351 28352 28
22682 28351 28353 28
22683 28351 28354 28
22684 28351 28355 28
22685 28356 28357 28
22686 28356 28358 28
22687 28356 28359 28
22688 28356 28360 28
22689 28361 28362 28
22690 28361 28363 28
22691 28361 28364 28
22692 28361 28365 28
22693 28366 28367 28
22694 28366 28368 28
22695 28366 28369 28
22696 28366 28370 28
22697 28371 28372 28
22698 28371 28373 28
22699 28371 28374 28
22700 28371 28375 28
22701 28376 28377 28
22702 28376 28378 28
22703 28376 28379 28
22704 28376 28380 28
22705 28381 28382 28
22706 28381 28383 28
22707 28381 28384 28
22708 28381 28385 28
22709 28386 28387 28
22710 28386 28388 28
22711 28386 28389 28
22712 28386 28390 28
22713 28391 28392 28
22714 28391 28393 28
22715 28391 28394 28
22716 28391 28395 28
22717 28396 28397 28
22718 28396 28398 28
22719 28396 28399 28
22720 28396 28400 28
22721 28401 28402 28
22722 28401 28403 28
22723 28401 28404 28
22724 28401 28405 28
22725 28406 28407 28
22726 28406 28408 28
22727 28406 28409 28
22728 28406 28410 28
22729 28411 28412 28
22730 28411 28413 28
22731 28411 28414 28
22732 28411 28415 28
22733 28416 28417 28
22734 28416 28418 28
22735 28416 28419 28
22736 28416 28420 28
22737 28421 28422 28
22738 28421 28423 28
22739 28421 28424 28
22740 28421 28425 28
22741 28426 28427 28
22742 28426 28428 28
22743 28426 28429 28
22744 28426 28430 28
22745 28431 28432 28
22746 28431 28433 28
22747 28431 28434 28
22748 28431 28435 28
22749 28436 28437 28
22750 28436 28438 28
22751 28436 28439 28
22752 28436 28440 28
22753 28441 28442 28
22754 28441 28443 28
22755 28441 28444 28
22756 28441 28445 28
22757 28446 28447 28
22758 28446 28448 28
22759 28446 28449 28
22760 28446 28450 28
22761 28451 28452 28
22762 28451 28453 28
22763 28451 28454 28
22764 28451 28455 28
22765 28456 28457 28
22766 28456 28458 28
22767 28456 28459 28
22768 28456 28460 28
22769 28461 28462 28
22770 28461 28463 28
22771 28461 28464 28
22772 28461 28465 28
22773 28466 28467 28
22774 28466 28468 28
22775 28466 28469 28
22776 28466 28470 28
22777 28471 28472 28
22778 28471 28473 28
22779 28471 28474 28
22780 28471 28475 28
22781 28476 28477 28
22782 28476 28478 28
22783 28476 28479 28
22784 28476 28480 28
22785 28481 28482 28
22786 28481 28483 28
22787 28481 28484 28
22788 28481 28485 28
22789 28486 28487 28
22790 28486 28488 28
22791 28486 28489 28
22792 28486 28490 28
22793 28491 28492 28
22794 28491 28493 28
22795 28491 28494 28
22796 28491 28495 28
22797 28496 28497 28
22798 28496 28498 28
22799 28496 28499 28
22800 28496 28500 28
22801 28501 28502 28
22802 28501 28503 28
22803 28501 28504 28
22804 28501 28505 28
22805 28506 28507 28
22806 28506 28508 28
22807 28506 28509 28
22808 28506 28510 28
22809 28511 28512 28
22810 28511 28513 28
22811 28511 28514 28
22812 28511 28515 28
22813 28516 28517 28
22814 28516 28518 28
22815 28516 28519 28
22816 28516 28520 28
22817 28521 28522 28
22818 28521 28523 28
22819 28521 28524 28
22820 28521 28525 28
22821 28526 28527 28
22822 28526 28528 28
22823 28526 28529 28
22824 28526 28530 28
22825 28531 28532 28
22826 28531 28533 28
22827 28531 28534 28
22828 28531 28535 28
22829 28536 28537 28
22830 28536 28538 28
22831 28536 28539 28
22832 28536 28540 28
22833 28541 28542 28
22834 28541 28543 28
22835 28541 28544 28
22836 28541 28545 28
22837 28546 28547 28
22838 28546 28548 28
22839 28546 28549 28
22840 28546 28550 28
22841 28551 28552 28
22842 28551 28553 28
22843 28551 28554 28
22844 28551 28555 28
22845 28556 28557 28
22846 28556 28558 28
22847 28556 28559 28
22848 28556 28560 28
22849 28561 28562 28
22850 28561 28563 28
22851 28561 28564 28
22852 28561 28565 28
22853 28566 28567 28
22854 28566 28568 28
22855 28566 28569 28
22856 28566 28570 28
22857 28571 28572 28
22858 28571 28573 28
22859 28571 28574 28
22860 28571 28575 28
22861 28576 28577 28
22862 28576 28578 28
22863 28576 28579 28
22864 28576 28580 28
22865 28581 28582 28
22866 28581 28583 28
22867 28581 28584 28
22868 28581 28585 28
22869 28586 28587 28
22870 28586 28588 28
22871 28586 28589 28
22872 28586 28590 28
22873 28591 28592 28
22874 28591 28593 28
22875 28591 28594 28
22876 28591 28595 28
22877 28596 28597 28
22878 28596 28598 28
22879 28596 28599 28
22880 28596 28600 28
22881 28601 28602 28
22882 28601 28603 28
22883 28601 28604 28
22884 28601 28605 28
22885 28606 28607 28
22886 28606 28608 28
22887 28606 28609 28
22888 28606 28610 28
22889 28611 28612 28
22890 28611 28613 28
22891 28611 28614 28
22892 28611 28615 28
22893 28616 28617 28
22894 28616 28618 28
22895 28616 28619 28
22896 28616 28620 28
22897 28621 28622 28
22898 28621 28623 28
22899 28621 28624 28
22900 28621 28625 28
22901 28626 28627 28
22902 28626 28628 28
22903 28626 28629 28
22904 28626 28630 28
22905 28631 28632 28
22906 28631 28633 28
22907 28631 28634 28
22908 28631 28635 28
22909 28636 28637 28
22910 28636 28638 28
22911 28636 28639 28
22912 28636 28640 28
22913 28641 28642 28
22914 28641 28643 28
22915 28641 28644 28
22916 28641 28645 28
22917 28646 28647 28
22918 28646 28648 28
22919 28646 28649 28
22920 28646 28650 28
22921 28651 28652 28
22922 28651 28653 28
22923 28651 28654 28
22924 28651 28655 28
22925 28656 28657 28
22926 28656 28658 28
22927 28656 28659 28
22928 28656 28660 28
22929 28661 28662 28
22930 28661 28663 28
22931 28661 28664 28
22932 28661 28665 28
22933 28666 28667 28
22934 28666 28668 28
22935 28666 28669 28
22936 28666 28670 28
22937 28671 28672 28
22938 28671 28673 28
22939 28671 28674 28
22940 28671 28675 28
22941 28676 28677 28
22942 28676 28678 28
22943 28676 28679 28
22944 28676 28680 28
22945 28681 28682 28
22946 28681 28683 28
22947 28681 28684 28
22948 28681 28685 28
22949 28686 28687 28
22950 28686 28688 28
22951 28686 28689 28
22952 28686 28690 28
22953 28691 28692 28
22954 28691 28693 28
22955 28691 28694 28
22956 28691 28695 28
22957 28696 28697 28
22958 28696 28698 28
22959 28696 28699 28
22960 28696 28700 28
22961 28701 28702 28
22962 28701 28703 28
22963 28701 28704 28
22964 28701 28705 28
22965 28706 28707 28
22966 28706 28708 28
22967 28706 28709 28
22968 28706 28710 28
22969 28711 28712 28
22970 28711 28713 28
22971 28711 28714 28
22972 28711 28715 28
22973 28716 28717 28
22974 28716 28718 28
22975 28716 28719 28
22976 28716 28720 28
22977 28721 28722 28
22978 28721 28723 28
22979 28721 28724 28
22980 28721 28725 28
22981 28726 28727 28
22982 28726 28728 28
22983 28726 28729 28
22984 28726 28730 28
22985 28731 28732 28
22986 28731 28733 28
22987 28731 28734 28
22988 28731 28735 28
22989 28736 28737 28
22990 28736 28738 28
22991 28736 28739 28
22992 28736 28740 28
22993 28741 28742 28
22994 28741 28743 28
22995 28741 28744 28
22996 28741 28745 28
22997 28746 28747 28
22998 28746 28748 28
22999 28746 28749 28
23000 28746 28750 28
23001 28751 28752 28
23002 28751 28753 28
23003 28751 28754 28
23004 28751 28755 28
23005 28756 28757 28
23006 28756 28758 28
23007 28756 28759 28
23008 28756 28760 28
23009 28761 28762 28
23010 28761 28763 28
23011 28761 28764 28
23012 28761 28765 28
23013 28766 28767 28
23014 28766 28768 28
23015 28766 28769 28
23016 28766 28770 28
23017 28771 28772 28
23018 28771 28773 28
23019 28771 28774 28
23020 28771 28775 28
23021 28776 28777 28
23022 28776 28778 28
23023 28776 28779 28
23024 28776 28780 28
23025 28781 28782 28
23026 28781 28783 28
23027 28781 28784 28
23028 28781 28785 28
23029 28786 28787 28
23030 28786 28788 28
23031 28786 28789 28
23032 28786 28790 28
23033 28791 28792 28
23034 28791 28793 28
23035 28791 28794 28
23036 28791 28795 28
23037 28796 28797 28
23038 28796 28798 28
23039 28796 28799 28
23040 28796 28800 28
23041 28801 28802 28
23042 28801 28803 28
23043 28801 28804 28
23044 28801 28805 28
23045 28806 28807 28
23046 28806 28808 28
23047 28806 28809 28
23048 28806 28810 28
23049 28811 28812 28
23050 28811 28813 28
23051 28811 28814 28
23052 28811 28815 28
23053 28816 28817 28
23054 28816 28818 28
23055 28816 28819 28
23056 28816 28820 28
23057 28821 28822 28
23058 28821 28823 28
23059 28821 28824 28
23060 28821 28825 28
23061 28826 28827 28
23062 28826 28828 28
23063 28826 28829 28
23064 28826 28830 28
23065 28831 28832 28
23066 28831 28833 28
23067 28831 28834 28
23068 28831 28835 28
23069 28836 28837 28
23070 28836 28838 28
23071 28836 28839 28
23072 28836 28840 28
23073 28841 28842 28
23074 28841 28843 28
23075 28841 28844 28
23076 28841 28845 28
23077 28846 28847 28
23078 28846 28848 28
23079 28846 28849 28
23080 28846 28850 28
23081 28851 28852 28
23082 28851 28853 28
23083 28851 28854 28
23084 28851 28855 28
23085 28856 28857 28
23086 28856 28858 28
23087 28856 28859 28
23088 28856 28860 28
23089 28861 28862 28
23090 28861 28863 28
23091 28861 28864 28
23092 28861 28865 28
23093 28866 28867 28
23094 28866 28868 28
23095 28866 28869 28
23096 28866 28870 28
23097 28871 28872 28
23098 28871 28873 28
23099 28871 28874 28
23100 28871 28875 28
23101 28876 28877 28
23102 28876 28878 28
23103 28876 28879 28
23104 28876 28880 28
23105 28881 28882 28
23106 28881 28883 28
23107 28881 28884 28
23108 28881 28885 28
23109 28886 28887 28
23110 28886 28888 28
23111 28886 28889 28
23112 28886 28890 28
23113 28891 28892 28
23114 28891 28893 28
23115 28891 28894 28
23116 28891 28895 28
23117 28896 28897 28
23118 28896 28898 28
23119 28896 28899 28
23120 28896 28900 28
23121 28901 28902 28
23122 28901 28903 28
23123 28901 28904 28
23124 28901 28905 28
23125 28906 28907 28
23126 28906 28908 28
23127 28906 28909 28
23128 28906 28910 28
23129 28911 28912 28
23130 28911 28913 28
23131 28911 28914 28
23132 28911 28915 28
23133 28916 28917 28
23134 28916 28918 28
23135 28916 28919 28
23136 28916 28920 28
23137 28921 28922 28
23138 28921 28923 28
23139 28921 28924 28
23140 28921 28925 28
23141 28926 28927 28
23142 28926 28928 28
23143 28926 28929 28
23144 28926 28930 28
23145 28931 28932 28
23146 28931 28933 28
23147 28931 28934 28
23148 28931 28935 28
23149 28936 28937 28
23150 28936 28938 28
23151 28936 28939 28
23152 28936 28940 28
23153 28941 28942 28
23154 28941 28943 28
23155 28941 28944 28
23156 28941 28945 28
23157 28946 28947 28
23158 28946 28948 28
23159 28946 28949 28
23160 28946 28950 28
23161 28951 28952 28
23162 28951 28953 28
23163 28951 28954 28
23164 28951 28955 28
23165 28956 28957 28
23166 28956 28958 28
23167 28956 28959 28
23168 28956 28960 28
23169 28961 28962 28
23170 28961 28963 28
23171 28961 28964 28
23172 28961 28965 28
23173 28966 28967 28
23174 28966 28968 28
23175 28966 28969 28
23176 28966 28970 28
23177 28971 28972 28
23178 28971 28973 28
23179 28971 28974 28
23180 28971 28975 28
23181 28976 28977 28
23182 28976 28978 28
23183 28976 28979 28
23184 28976 28980 28
23185 28981 28982 28
23186 28981 28983 28
23187 28981 28984 28
23188 28981 28985 28
23189 28986 28987 28
23190 28986 28988 28
23191 28986 28989 28
23192 28986 28990 28
23193 28991 28992 28
23194 28991 28993 28
23195 28991 28994 28
23196 28991 28995 28
23197 28996 28997 28
23198 28996 28998 28
23199 28996 28999 28
23200 28996 29000 28
23201 29001 29002 28
23202 29001 29003 28
23203 29001 29004 28
23204 29001 29005 28
23205 29006 29007 28
23206 29006 29008 28
23207 29006 29009 28
23208 29006 29010 28
23209 29011 29012 28
23210 29011 29013 28
23211 29011 29014 28
23212 29011 29015 28
23213 29016 29017 28
23214 29016 29018 28
23215 29016 29019 28
23216 29016 29020 28
23217 29021 29022 28
23218 29021 29023 28
23219 29021 29024 28
23220 29021 29025 28
23221 29026 29027 28
23222 29026 29028 28
23223 29026 29029 28
23224 29026 29030 28
23225 29031 29032 28
23226 29031 29033 28
23227 29031 29034 28
23228 29031 29035 28
23229 29036 29037 28
23230 29036 29038 28
23231 29036 29039 28
23232 29036 29040 28
23233 29041 29042 28
23234 29041 29043 28
23235 29041 29044 28
23236 29041 29045 28
23237 29046 29047 28
23238 29046 29048 28
23239 29046 29049 28
23240 29046 29050 28
23241 29051 29052 28
23242 29051 29053 28
23243 29051 29054 28
23244 29051 29055 28
23245 29056 29057 28
23246 29056 29058 28
23247 29056 29059 28
23248 29056 29060 28
23249 29061 29062 28
23250 29061 29063 28
23251 29061 29064 28
23252 29061 29065 28
23253 29066 29067 28
23254 29066 29068 28
23255 29066 29069 28
23256 29066 29070 28
23257 29071 29072 28
23258 29071 29073 28
23259 29071 29074 28
23260 29071 29075 28
23261 29076 29077 28
23262 29076 29078 28
23263 29076 29079 28
23264 29076 29080 28
23265 29081 29082 28
23266 29081 29083 28
23267 29081 29084 28
23268 29081 29085 28
23269 29086 29087 28
23270 29086 29088 28
23271 29086 29089 28
23272 29086 29090 28
23273 29091 29092 28
23274 29091 29093 28
23275 29091 29094 28
23276 29091 29095 28
23277 29096 29097 28
23278 29096 29098 28
23279 29096 29099 28
23280 29096 29100 28
23281 29101 29102 28
23282 29101 29103 28
23283 29101 29104 28
23284 29101 29105 28
23285 29106 29107 28
23286 29106 29108 28
23287 29106 29109 28
23288 29106 29110 28
23289 29111 29112 28
23290 29111 29113 28
23291 29111 29114 28
23292 29111 29115 28
23293 29116 29117 28
23294 29116 29118 28
23295 29116 29119 28
23296 29116 29120 28
23297 29121 29122 28
23298 29121 29123 28
23299 29121 29124 28
23300 29121 29125 28
23301 29126 29127 28
23302 29126 29128 28
23303 29126 29129 28
23304 29126 29130 28
23305 29131 29132 28
23306 29131 29133 28
23307 29131 29134 28
23308 29131 29135 28
23309 29136 29137 28
23310 29136 29138 28
23311 29136 29139 28
23312 29136 29140 28
23313 29141 29142 28
23314 29141 29143 28
23315 29141 29144 28
23316 29141 29145 28
23317 29146 29147 28
23318 29146 29148 28
23319 29146 29149 28
23320 29146 29150 28
23321 29151 29152 28
23322 29151 29153 28
23323 29151 29154 28
23324 29151 29155 28
23325 29156 29157 28
23326 29156 29158 28
23327 29156 29159 28
23328 29156 29160 28
23329 29161 29162 28
23330 29161 29163 28
23331 29161 29164 28
23332 29161 29165 28
23333 29166 29167 28
23334 29166 29168 28
23335 29166 29169 28
23336 29166 29170 28
23337 29171 29172 28
23338 29171 29173 28
23339 29171 29174 28
23340 29171 29175 28
23341 29176 29177 28
23342 29176 29178 28
23343 29176 29179 28
23344 29176 29180 28
23345 29181 29182 28
23346 29181 29183 28
23347 29181 29184 28
23348 29181 29185 28
23349 29186 29187 28
23350 29186 29188 28
23351 29186 29189 28
23352 29186 29190 28
23353 29191 29192 28
23354 29191 29193 28
23355 29191 29194 28
23356 29191 29195 28
23357 29196 29197 28
23358 29196 29198 28
23359 29196 29199 28
23360 29196 29200 28
23361 29201 29202 28
23362 29201 29203 28
23363 29201 29204 28
23364 29201 29205 28
23365 29206 29207 28
23366 29206 29208 28
23367 29206 29209 28
23368 29206 29210 28
23369 29211 29212 28
23370 29211 29213 28
23371 29211 29214 28
23372 29211 29215 28
23373 29216 29217 28
23374 29216 29218 28
23375 29216 29219 28
23376 29216 29220 28
23377 29221 29222 28
23378 29221 29223 28
23379 29221 29224 28
23380 29221 29225 28
23381 29226 29227 28
23382 29226 29228 28
23383 29226 29229 28
23384 29226 29230 28
23385 29231 29232 28
23386 29231 29233 28
23387 29231 29234 28
23388 29231 29235 28
23389 29236 29237 28
23390 29236 29238 28
23391 29236 29239 28
23392 29236 29240 28
23393 29241 29242 28
23394 29241 29243 28
23395 29241 29244 28
23396 29241 29245 28
23397 29246 29247 28
23398 29246 29248 28
23399 29246 29249 28
23400 29246 29250 28
23401 29251 29252 28
23402 29251 29253 28
23403 29251 29254 28
23404 29251 29255 28
23405 29256 29257 28
23406 29256 29258 28
23407 29256 29259 28
23408 29256 29260 28
23409 29261 29262 28
23410 29261 29263 28
23411 29261 29264 28
23412 29261 29265 28
23413 29266 29267 28
23414 29266 29268 28
23415 29266 29269 28
23416 29266 29270 28
23417 29271 29272 28
23418 29271 29273 28
23419 29271 29274 28
23420 29271 29275 28
23421 29276 29277 28
23422 29276 29278 28
23423 29276 29279 28
23424 29276 29280 28
23425 29281 29282 28
23426 29281 29283 28
23427 29281 29284 28
23428 29281 29285 28
23429 29286 29287 28
23430 29286 29288 28
23431 29286 29289 28
23432 29286 29290 28
23433 29291 29292 28
23434 29291 29293 28
23435 29291 29294 28
23436 29291 29295 28
23437 29296 29297 28
23438 29296 29298 28
23439 29296 29299 28
23440 29296 29300 28
23441 29301 29302 28
23442 29301 29303 28
23443 29301 29304 28
23444 29301 29305 28
23445 29306 29307 28
23446 29306 29308 28
23447 29306 29309 28
23448 29306 29310 28
23449 29311 29312 28
23450 29311 29313 28
23451 29311 29314 28
23452 29311 29315 28
23453 29316 29317 28
23454 29316 29318 28
23455 29316 29319 28
23456 29316 29320 28
23457 29321 29322 28
23458 29321 29323 28
23459 29321 29324 28
23460 29321 29325 28
23461 29326 29327 28
23462 29326 29328 28
23463 29326 29329 28
23464 29326 29330 28
23465 29331 29332 28
23466 29331 29333 28
23467 29331 29334 28
23468 29331 29335 28
23469 29336 29337 28
23470 29336 29338 28
23471 29336 29339 28
23472 29336 29340 28
23473 29341 29342 28
23474 29341 29343 28
23475 29341 29344 28
23476 29341 29345 28
23477 29346 29347 28
23478 29346 29348 28
23479 29346 29349 28
23480 29346 29350 28
23481 29351 29352 28
23482 29351 29353 28
23483 29351 29354 28
23484 29351 29355 28
23485 29356 29357 28
23486 29356 29358 28
23487 29356 29359 28
23488 29356 29360 28
23489 29361 29362 28
23490 29361 29363 28
23491 29361 29364 28
23492 29361 29365 28
23493 29366 29367 28
23494 29366 29368 28
23495 29366 29369 28
23496 29366 29370 28
23497 29371 29372 28
23498 29371 29373 28
23499 29371 29374 28
23500 29371 29375 28
23501 29376 29377 28
23502 29376 29378 28
23503 29376 29379 28
23504 29376 29380 28
23505 29381 29382 28
23506 29381 29383 28
23507 29381 29384 28
23508 29381 29385 28
23509 29386 29387 28
23510 29386 29388 28
23511 29386 29389 28
23512 29386 29390 28
23513 29391 29392 28
23514 29391 29393 28
23515 29391 29394 28
23516 29391 29395 28
23517 29396 29397 28
23518 29396 29398 28
23519 29396 29399 28
23520 29396 29400 28
23521 29401 29402 28
23522 29401 29403 28
23523 29401 29404 28
23524 29401 29405 28
23525 29406 29407 28
23526 29406 29408 28
23527 29406 29409 28
23528 29406 29410 28
23529 29411 29412 28
23530 29411 29413 28
23531 29411 29414 28
23532 29411 29415 28
23533 29416 29417 28
23534 29416 29418 28
23535 29416 29419 28
23536 29416 29420 28
23537 29421 29422 28
23538 29421 29423 28
23539 29421 29424 28
23540 29421 29425 28
23541 29426 29427 28
23542 29426 29428 28
23543 29426 29429 28
23544 29426 29430 28
23545 29431 29432 28
23546 29431 29433 28
23547 29431 29434 28
23548 29431 29435 28
23549 29436 29437 28
23550 29436 29438 28
23551 29436 29439 28
23552 29436 29440 28
23553 29441 29442 28
23554 29441 29443 28
23555 29441 29444 28
23556 29441 29445 28
23557 29446 29447 28
23558 29446 29448 28
23559 29446 29449 28
23560 29446 29450 28
23561 29451 29452 28
23562 29451 29453 28
23563 29451 29454 28
23564 29451 29455 28
23565 29456 29457 28
23566 29456 29458 28
23567 29456 29459 28
23568 29456 29460 28
23569 29461 29462 28
23570 29461 29463 28
23571 29461 29464 28
23572 29461 29465 28
23573 29466 29467 28
23574 29466 29468 28
23575 29466 29469 28
23576 29466 29470 28
23577 29471 29472 28
23578 29471 29473 28
23579 29471 29474 28
23580 29471 29475 28
23581 29476 29477 28
23582 29476 29478 28
23583 29476 29479 28
23584 29476 29480 28
23585 29481 29482 28
23586 29481 29483 28
23587 29481 29484 28
23588 29481 29485 28
23589 29486 29487 28
23590 29486 29488 28
23591 29486 29489 28
23592 29486 29490 28
23593 29491 29492 28
23594 29491 29493 28
23595 29491 29494 28
23596 29491 29495 28
23597 29496 29497 28
23598 29496 29498 28
23599 29496 29499 28
23600 29496 29500 28
23601 29501 29502 28
23602 29501 29503 28
23603 29501 29504 28
23604 29501 29505 28
23605 29506 29507 28
23606 29506 29508 28
23607 29506 29509 28
23608 29506 29510 28
23609 29511 29512 28
23610 29511 29513 28
23611 29511 29514 28
23612 29511 29515 28
23613 29516 29517 28
23614 29516 29518 28
23615 29516 29519 28
23616 29516 29520 28
23617 29521 29522 28
23618 29521 29523 28
23619 29521 29524 28
23620 29521 29525 28
23621 29526 29527 28
23622 29526 29528 28
23623 29526 29529 28
23624 29526 29530 28
23625 29531 29532 28
23626 29531 29533 28
23627 29531 29534 28
23628 29531 29535 28
23629 29536 29537 28
23630 29536 29538 28
23631 29536 29539 28
23632 29536 29540 28
23633 29541 29542 28
23634 29541 29543 28
23635 29541 29544 28
23636 29541 29545 28
23637 29546 29547 28
23638 29546 29548 28
23639 29546 29549 28
23640 29546 29550 28
23641 29551 29552 28
23642 29551 29553 28
23643 29551 29554 28
23644 29551 29555 28
23645 29556 29557 28
23646 29556 29558 28
23647 29556 29559 28
23648 29556 29560 28
23649 29561 29562 28
23650 29561 29563 28
23651 29561 29564 28
23652 29561 29565 28
23653 29566 29567 28
23654 29566 29568 28
23655 29566 29569 28
23656 29566 29570 28
23657 29571 29572 28
23658 29571 29573 28
23659 29571 29574 28
23660 29571 29575 28
23661 29576 29577 28
23662 29576 29578 28
23663 29576 29579 28
23664 29576 29580 28
23665 29581 29582 28
23666 29581 29583 28
23667 29581 29584 28
23668 29581 29585 28
23669 29586 29587 28
23670 29586 29588 28
23671 29586 29589 28
23672 29586 29590 28
23673 29591 29592 28
23674 29591 29593 28
23675 29591 29594 28
23676 29591 29595 28
23677 29596 29597 28
23678 29596 29598 28
23679 29596 29599 28
23680 29596 29600 28
23681 29601 29602 28
23682 29601 29603 28
23683 29601 29604 28
23684 29601 29605 28
23685 29606 29607 28
23686 29606 29608 28
23687 29606 29609 28
23688 29606 29610 28
23689 29611 29612 28
23690 29611 29613 28
23691 29611 29614 28
23692 29611 29615 28
23693 29616 29617 28
23694 29616 29618 28
23695 29616 29619 28
23696 29616 29620 28
23697 29621 29622 28
23698 29621 29623 28
23699 29621 29624 28
23700 29621 29625 28
23701 29626 29627 28
23702 29626 29628 28
23703 29626 29629 28
23704 29626 29630 28
23705 29631 29632 28
23706 29631 29633 28
23707 29631 29634 28
23708 29631 29635 28
23709 29636 29637 28
23710 29636 29638 28
23711 29636 29639 28
23712 29636 29640 28
23713 29641 29642 28
23714 29641 29643 28
23715 29641 29644 28
23716 29641 29645 28
23717 29646 29647 28
23718 29646 29648 28
23719 29646 29649 28
23720 29646 29650 28
23721 29651 29652 28
23722 29651 29653 28
23723 29651 29654 28
23724 29651 29655 28
23725 29656 29657 28
23726 29656 29658 28
23727 29656 29659 28
23728 29656 29660 28
23729 29661 29662 28
23730 29661 29663 28
23731 29661 29664 28
23732 29661 29665 28
23733 29666 29667 28
23734 29666 29668 28
23735 29666 29669 28
23736 29666 29670 28
23737 29671 29672 28
23738 29671 29673 28
23739 29671 29674 28
23740 29671 29675 28
23741 29676 29677 28
23742 29676 29678 28
23743 29676 29679 28
23744 29676 29680 28
23745 29681 29682 28
23746 29681 29683 28
23747 29681 29684 28
23748 29681 29685 28
23749 29686 29687 28
23750 29686 29688 28
23751 29686 29689 28
23752 29686 29690 28
23753 29691 29692 28
23754 29691 29693 28
23755 29691 29694 28
23756 29691 29695 28
23757 29696 29697 28
23758 29696 29698 28
23759 29696 29699 28
23760 29696 29700 28
23761 29701 29702 28
23762 29701 29703 28
23763 29701 29704 28
23764 29701 29705 28
23765 29706 29707 28
23766 29706 29708 28
23767 29706 29709 28
23768 29706 29710 28
23769 29711 29712 28
23770 29711 29713 28
23771 29711 29714 28
23772 29711 29715 28
23773 29716 29717 28
23774 29716 29718 28
23775 29716 29719 28
23776 29716 29720 28
23777 29721 29722 28
23778 29721 29723 28
23779 29721 29724 28
23780 29721 29725 28
23781 29726 29727 28
23782 29726 29728 28
23783 29726 29729 28
23784 29726 29730 28
23785 29731 29732 28
23786 29731 29733 28
23787 29731 29734 28
23788 29731 29735 28
23789 29736 29737 28
23790 29736 29738 28
23791 29736 29739 28
23792 29736 29740 28
23793 29741 29742 28
23794 29741 29743 28
23795 29741 29744 28
23796 29741 29745 28
23797 29746 29747 28
23798 29746 29748 28
23799 29746 29749 28
23800 29746 29750 28
23801 29751 29752 28
23802 29751 29753 28
23803 29751 29754 28
23804 29751 29755 28
23805 29756 29757 28
23806 29756 29758 28
23807 29756 29759 28
23808 29756 29760 28
23809 29761 29762 28
23810 29761 29763 28
23811 29761 29764 28
23812 29761 29765 28
23813 29766 29767 28
23814 29766 29768 28
23815 29766 29769 28
23816 29766 29770 28
23817 29771 29772 28
23818 29771 29773 28
23819 29771 29774 28
23820 29771 29775 28
23821 29776 29777 28
23822 29776 29778 28
23823 29776 29779 28
23824 29776 29780 28
23825 29781 29782 28
23826 29781 29783 28
23827 29781 29784 28
23828 29781 29785 28
23829 29786 29787 28
23830 29786 29788 28
23831 29786 29789 28
23832 29786 29790 28
23833 29791 29792 28
23834 29791 29793 28
23835 29791 29794 28
23836 29791 29795 28
23837 29796 29797 28
23838 29796 29798 28
23839 29796 29799 28
23840 29796 29800 28
23841 29801 29802 28
23842 29801 29803 28
23843 29801 29804 28
23844 29801 29805 28
23845 29806 29807 28
23846 29806 29808 28
23847 29806 29809 28
23848 29806 29810 28
23849 29811 29812 28
23850 29811 29813 28
23851 29811 29814 28
23852 29811 29815 28
23853 29816 29817 28
23854 29816 29818 28
23855 29816 29819 28
23856 29816 29820 28
23857 29821 29822 28
23858 29821 29823 28
23859 29821 29824 28
23860 29821 29825 28
23861 29826 29827 28
23862 29826 29828 28
23863 29826 29829 28
23864 29826 29830 28
23865 29831 29832 28
23866 29831 29833 28
23867 29831 29834 28
23868 29831 29835 28
23869 29836 29837 28
23870 29836 29838 28
23871 29836 29839 28
23872 29836 29840 28
23873 29841 29842 28
23874 29841 29843 28
23875 29841 29844 28
23876 29841 29845 28
23877 29846 29847 28
23878 29846 29848 28
23879 29846 29849 28
23880 29846 29850 28
23881 29851 29852 28
23882 29851 29853 28
23883 29851 29854 28
23884 29851 29855 28
23885 29856 29857 28
23886 29856 29858 28
23887 29856 29859 28
23888 29856 29860 28
23889 29861 29862 28
23890 29861 29863 28
23891 29861 29864 28
23892 29861 29865 28
23893 29866 29867 28
23894 29866 29868 28
23895 29866 29869 28
23896 29866 29870 28
23897 29871 29872 28
23898 29871 29873 28
23899 29871 29874 28
23900 29871 29875 28
23901 29876 29877 28
23902 29876 29878 28
23903 29876 29879 28
23904 29876 29880 28
23905 29881 29882 28
23906 29881 29883 28
23907 29881 29884 28
23908 29881 29885 28
23909 29886 29887 28
23910 29886 29888 28
23911 29886 29889 28
23912 29886 29890 28
23913 29891 29892 28
23914 29891 29893 28
23915 29891 29894 28
23916 29891 29895 28
23917 29896 29897 28
23918 29896 29898 28
23919 29896 29899 28
23920 29896 29900 28
23921 29901 29902 28
23922 29901 29903 28
23923 29901 29904 28
23924 29901 29905 28
23925 29906 29907 28
23926 29906 29908 28
23927 29906 29909 28
23928 29906 29910 28
23929 29911 29912 28
23930 29911 29913 28
23931 29911 29914 28
23932 29911 29915 28
23933 29916 29917 28
23934 29916 29918 28
23935 29916 29919 28
23936 29916 29920 28
23937 29921 29922 28
23938 29921 29923 28
23939 29921 29924 28
23940 29921 29925 28
23941 29926 29927 28
23942 29926 29928 28
23943 29926 29929 28
23944 29926 29930 28
23945 29931 29932 28
23946 29931 29933 28
23947 29931 29934 28
23948 29931 29935 28
23949 29936 29937 28
23950 29936 29938 28
23951 29936 29939 28
23952 29936 29940 28
23953 29941 29942 28
23954 29941 29943 28
23955 29941 29944 28
23956 29941 29945 28
23957 29946 29947 28
23958 29946 29948 28
23959 29946 29949 28
23960 29946 29950 28
23961 29951 29952 28
23962 29951 29953 28
23963 29951 29954 28
23964 29951 29955 28
23965 29956 29957 28
23966 29956 29958 28
23967 29956 29959 28
23968 29956 29960 28
23969 29961 29962 28
23970 29961 29963 28
23971 29961 29964 28
23972 29961 29965 28
23973 29966 29967 28
23974 29966 29968 28
23975 29966 29969 28
23976 29966 29970 28
23977 29971 29972 28
23978 29971 29973 28
23979 29971 29974 28
23980 29971 29975 28
23981 29976 29977 28
23982 29976 29978 28
23983 29976 29979 28
23984 29976 29980 28
23985 29981 29982 28
23986 29981 29983 28
23987 29981 29984 28
23988 29981 29985 28
23989 29986 29987 28
23990 29986 29988 28
23991 29986 29989 28
23992 29986 29990 28
23993 29991 29992 28
23994 29991 29993 28
23995 29991 29994 28
23996 29991 29995 28
23997 29996 29997 28
23998 29996 29998 28
23999 29996 29999 28
24000 29996 30000 28
24001 30001 30002 28
24002 30001 30003 28
24003 30001 30004 28
24004 30001 30005 28
24005 30006 30007 28
24006 30006 30008 28
24007 30006 30009 28
24008 30006 30010 28
24009 30011 30012 28
24010 30011 30013 28
24011 30011 30014 28
24012 30011 30015 28
24013 30016 30017 28
24014 30016 30018 28
24015 30016 30019 28
24016 30016 30020 28
24017 30021 30022 28
24018 30021 30023 28
24019 30021 30024 28
24020 30021 30025 28
24021 30026 30027 28
24022 30026 30028 28
24023 30026 30029 28
24024 30026 30030 28
24025 30031 30032 28
24026 30031 30033 28
24027 30031 30034 28
24028 30031 30035 28
24029 30036 30037 28
24030 30036 30038 28
24031 30036 30039 28
24032 30036 30040 28
24033 30041 30042 28
24034 30041 30043 28
24035 30041 30044 28
24036 30041 30045 28
24037 30046 30047 28
24038 30046 30048 28
24039 30046 30049 28
24040 30046 30050 28
24041 30051 30052 28
24042 30051 30053 28
24043 30051 30054 28
24044 30051 30055 28
24045 30056 30057 28
24046 30056 30058 28
24047 30056 30059 28
24048 30056 30060 28
24049 30061 30062 28
24050 30061 30063 28
24051 30061 30064 28
24052 30061 30065 28
24053 30066 30067 28
24054 30066 30068 28
24055 30066 30069 28
24056 30066 30070 28
24057 30071 30072 28
24058 30071 30073 28
24059 30071 30074 28
24060 30071 30075 28
24061 30076 30077 28
24062 30076 30078 28
24063 30076 30079 28
24064 30076 30080 28
24065 30081 30082 28
24066 30081 30083 28
24067 30081 30084 28
24068 30081 30085 28
24069 30086 30087 28
24070 30086 30088 28
24071 30086 30089 28
24072 30086 30090 28
24073 30091 30092 28
24074 30091 30093 28
24075 30091 30094 28
24076 30091 30095 28
24077 30096 30097 28
24078 30096 30098 28
24079 30096 30099 28
24080 30096 30100 28
24081 30101 30102 28
24082 30101 30103 28
24083 30101 30104 28
24084 30101 30105 28
24085 30106 30107 28
24086 30106 30108 28
24087 30106 30109 28
24088 30106 30110 28
24089 30111 30112 28
24090 30111 30113 28
24091 30111 30114 28
24092 30111 30115 28
24093 30116 30117 28
24094 30116 30118 28
24095 30116 30119 28
24096 30116 30120 28
24097 30121 30122 28
24098 30121 30123 28
24099 30121 30124 28
24100 30121 30125 28
24101 30126 30127 28
24102 30126 30128 28
24103 30126 30129 28
24104 30126 30130 28
24105 30131 30132 28
24106 30131 30133 28
24107 30131 30134 28
24108 30131 30135 28
24109 30136 30137 28
24110 30136 30138 28
24111 30136 30139 28
24112 30136 30140 28
24113 30141 30142 28
24114 30141 30143 28
24115 30141 30144 28
24116 30141 30145 28
24117 30146 30147 28
24118 30146 30148 28
24119 30146 30149 28
24120 30146 30150 28
24121 30151 30152 28
24122 30151 30153 28
24123 30151 30154 28
24124 30151 30155 28
24125 30156 30157 28
24126 30156 30158 28
24127 30156 30159 28
24128 30156 30160 28
24129 30161 30162 28
24130 30161 30163 28
24131 30161 30164 28
24132 30161 30165 28
24133 30166 30167 28
24134 30166 30168 28
24135 30166 30169 28
24136 30166 30170 28
24137 30171 30172 28
24138 30171 30173 28
24139 30171 30174 28
24140 30171 30175 28
24141 30176 30177 28
24142 30176 30178 28
24143 30176 30179 28
24144 30176 30180 28
24145 30181 30182 28
24146 30181 30183 28
24147 30181 30184 28
24148 30181 30185 28
24149 30186 30187 28
24150 30186 30188 28
24151 30186 30189 28
24152 30186 30190 28
24153 30191 30192 28
24154 30191 30193 28
24155 30191 30194 28
24156 30191 30195 28
24157 30196 30197 28
24158 30196 30198 28
24159 30196 30199 28
24160 30196 30200 28
24161 30201 30202 28
24162 30201 30203 28
24163 30201 30204 28
24164 30201 30205 28
24165 30206 30207 28
24166 30206 30208 28
24167 30206 30209 28
24168 30206 30210 28
24169 30211 30212 28
24170 30211 30213 28
24171 30211 30214 28
24172 30211 30215 28
24173 30216 30217 28
24174 30216 30218 28
24175 30216 30219 28
24176 30216 30220 28
24177 30221 30222 28
24178 30221 30223 28
24179 30221 30224 28
24180 30221 30225 28
24181 30226 30227 28
24182 30226 30228 28
24183 30226 30229 28
24184 30226 30230 28
24185 30231 30232 28
24186 30231 30233 28
24187 30231 30234 28
24188 30231 30235 28
24189 30236 30237 28
24190 30236 30238 28
24191 30236 30239 28
24192 30236 30240 28
24193 30241 30242 28
24194 30241 30243 28
24195 30241 30244 28
24196 30241 30245 28
24197 30246 30247 28
24198 30246 30248 28
24199 30246 30249 28
24200 30246 30250 28
24201 30251 30252 28
24202 30251 30253 28
24203 30251 30254 28
24204 30251 30255 28
24205 30256 30257 28
24206 30256 30258 28
24207 30256 30259 28
24208 30256 30260 28
24209 30261 30262 28
24210 30261 30263 28
24211 30261 30264 28
24212 30261 30265 28
24213 30266 30267 28
24214 30266 30268 28
24215 30266 30269 28
24216 30266 30270 28
24217 30271 30272 28
24218 30271 30273 28
24219 30271 30274 28
24220 30271 30275 28
24221 30276 30277 28
24222 30276 30278 28
24223 30276 30279 28
24224 30276 30280 28
24225 30281 30282 28
24226 30281 30283 28
24227 30281 30284 28
24228 30281 30285 28
24229 30286 30287 28
24230 30286 30288 28
24231 30286 30289 28
24232 30286 30290 28
24233 30291 30292 28
24234 30291 30293 28
24235 30291 30294 28
24236 30291 30295 28
24237 30296 30297 28
24238 30296 30298 28
24239 30296 30299 28
24240 30296 30300 28
24241 30301 30302 28
24242 30301 30303 28
24243 30301 30304 28
24244 30301 30305 28
24245 30306 30307 28
24246 30306 30308 28
24247 30306 30309 28
24248 30306 30310 28
24249 30311 30312 28
24250 30311 30313 28
24251 30311 30314 28
24252 30311 30315 28
24253 30316 30317 28
24254 30316 30318 28
24255 30316 30319 28
24256 30316 30320 28
24257 30321 30322 28
24258 30321 30323 28
24259 30321 30324 28
24260 30321 30325 28
24261 30326 30327 28
24262 30326 30328 28
24263 30326 30329 28
24264 30326 30330 28
24265 30331 30332 28
24266 30331 30333 28
24267 30331 30334 28
24268 30331 30335 28
24269 30336 30337 28
24270 30336 30338 28
24271 30336 30339 28
24272 30336 30340 28
24273 30341 30342 28
24274 30341 30343 28
24275 30341 30344 28
24276 30341 30345 28
24277 30346 30347 28
24278 30346 30348 28
24279 30346 30349 28
24280 30346 30350 28
24281 30351 30352 28
24282 30351 30353 28
24283 30351 30354 28
24284 30351 30355 28
24285 30356 30357 28
24286 30356 30358 28
24287 30356 30359 28
24288 30356 30360 28
24289 30361 30362 28
24290 30361 30363 28
24291 30361 30364 28
24292 30361 30365 28
24293 30366 30367 28
24294 30366 30368 28
24295 30366 30369 28
24296 30366 30370 28
24297 30371 30372 28
24298 30371 30373 28
24299 30371 30374 28
24300 30371 30375 28
24301 30376 30377 28
24302 30376 30378 28
24303 30376 30379 28
24304 30376 30380 28
24305 30381 30382 28
24306 30381 30383 28
24307 30381 30384 28
24308 30381 30385 28
24309 30386 30387 28
24310 30386 30388 28
24311 30386 30389 28
24312 30386 30390 28
24313 30391 30392 28
24314 30391 30393 28
24315 30391 30394 28
24316 30391 30395 28
24317 30396 30397 28
24318 30396 30398 28
24319 30396 30399 28
24320 30396 30400 28
24321 30401 30402 28
24322 30401 30403 28
24323 30401 30404 28
24324 30401 30405 28
24325 30406 30407 28
24326 30406 30408 28
24327 30406 30409 28
24328 30406 30410 28
24329 30411 30412 28
24330 30411 30413 28
24331 30411 30414 28
24332 30411 30415 28
24333 30416 30417 28
24334 30416 30418 28
24335 30416 30419 28
24336 30416 30420 28
24337 30421 30422 28
24338 30421 30423 28
24339 30421 30424 28
24340 30421 30425 28
24341 30426 30427 28
24342 30426 30428 28
24343 30426 30429 28
24344 30426 30430 28
24345 30431 30432 28
24346 30431 30433 28
24347 30431 30434 28
24348 30431 30435 28
24349 30436 30437 28
24350 30436 30438 28
24351 30436 30439 28
24352 30436 30440 28
24353 30441 30442 28
24354 30441 30443 28
24355 30441 30444 28
24356 30441 30445 28
24357 30446 30447 28
24358 30446 30448 28
24359 30446 30449 28
24360 30446 30450 28
24361 30451 30452 28
24362 30451 30453 28
24363 30451 30454 28
24364 30451 30455 28
24365 30456 30457 28
24366 30456 30458 28
24367 30456 30459 28
24368 30456 30460 28
24369 30461 30462 28
24370 30461 30463 28
24371 30461 30464 28
24372 30461 30465 28
24373 30466 30467 28
24374 30466 30468 28
24375 30466 30469 28
24376 30466 30470 28
24377 30471 30472 28
24378 30471 30473 28
24379 30471 30474 28
24380 30471 30475 28
24381 30476 30477 28
24382 30476 30478 28
24383 30476 30479 28
24384 30476 30480 28
24385 30481 30482 28
24386 30481 30483 28
24387 30481 30484 28
24388 30481 30485 28
24389 30486 30487 28
24390 30486 30488 28
24391 30486 30489 28
24392 30486 30490 28
24393 30491 30492 28
24394 30491 30493 28
24395 30491 30494 28
24396 30491 30495 28
24397 30496 30497 28
24398 30496 30498 28
24399 30496 30499 28
24400 30496 30500 28
24401 30501 30502 28
24402 30501 30503 28
24403 30501 30504 28
24404 30501 30505 28
24405 30506 30507 28
24406 30506 30508 28
24407 30506 30509 28
24408 30506 30510 28
24409 30511 30512 28
24410 30511 30513 28
24411 30511 30514 28
24412 30511 30515 28
24413 30516 30517 28
24414 30516 30518 28
24415 30516 30519 28
24416 30516 30520 28
24417 30521 30522 28
24418 30521 30523 28
24419 30521 30524 28
24420 30521 30525 28
24421 30526 30527 28
24422 30526 30528 28
24423 30526 30529 28
24424 30526 30530 28
24425 30531 30532 28
24426 30531 30533 28
24427 30531 30534 28
24428 30531 30535 28
24429 30536 30537 28
24430 30536 30538 28
24431 30536 30539 28
24432 30536 30540 28
24433 30541 30542 28
24434 30541 30543 28
24435 30541 30544 28
24436 30541 30545 28
24437 30546 30547 28
24438 30546 30548 28
24439 30546 30549 28
24440 30546 30550 28
24441 30551 30552 28
24442 30551 30553 28
24443 30551 30554 28
24444 30551 30555 28
24445 30556 30557 28
24446 30556 30558 28
24447 30556 30559 28
24448 30556 30560 28
24449 30561 30562 28
24450 30561 30563 28
24451 30561 30564 28
24452 30561 30565 28
24453 30566 30567 28
24454 30566 30568 28
24455 30566 30569 28
24456 30566 30570 28
24457 30571 30572 28
24458 30571 30573 28
24459 30571 30574 28
24460 30571 30575 28
24461 30576 30577 28
24462 30576 30578 28
24463 30576 30579 28
24464 30576 30580 28
24465 30581 30582 28
24466 30581 30583 28
24467 30581 30584 28
24468 30581 30585 28
24469 30586 30587 28
24470 30586 30588 28
24471 30586 30589 28
24472 30586 30590 28
24473 30591 30592 28
24474 30591 30593 28
24475 30591 30594 28
24476 30591 30595 28
24477 30596 30597 28
24478 30596 30598 28
24479 30596 30599 28
24480 30596 30600 28
24481 30601 30602 28
24482 30601 30603 28
24483 30601 30604 28
24484 30601 30605 28
24485 30606 30607 28
24486 30606 30608 28
24487 30606 30609 28
24488 30606 30610 28
24489 30611 30612 28
24490 30611 30613 28
24491 30611 30614 28
24492 30611 30615 28
24493 30616 30617 28
24494 30616 30618 28
24495 30616 30619 28
24496 30616 30620 28
24497 30621 30622 28
24498 30621 30623 28
24499 30621 30624 28
24500 30621 30625 28
24501 30626 30627 28
24502 30626 30628 28
24503 30626 30629 28
24504 30626 30630 28
24505 30631 30632 28
24506 30631 30633 28
24507 30631 30634 28
24508 30631 30635 28
24509 30636 30637 28
24510 30636 30638 28
24511 30636 30639 28
24512 30636 30640 28
24513 30641 30642 28
24514 30641 30643 28
24515 30641 30644 28
24516 30641 30645 28
24517 30646 30647 28
24518 30646 30648 28
24519 30646 30649 28
24520 30646 30650 28
24521 30651 30652 28
24522 30651 30653 28
24523 30651 30654 28
24524 30651 30655 28
24525 30656 30657 28
24526 30656 30658 28
24527 30656 30659 28
24528 30656 30660 28
24529 30661 30662 28
24530 30661 30663 28
24531 30661 30664 28
24532 30661 30665 28
24533 30666 30667 28
24534 30666 30668 28
24535 30666 30669 28
24536 30666 30670 28
24537 30671 30672 28
24538 30671 30673 28
24539 30671 30674 28
24540 30671 30675 28
24541 30676 30677 28
24542 30676 30678 28
24543 30676 30679 28
24544 30676 30680 28
24545 30681 30682 28
24546 30681 30683 28
24547 30681 30684 28
24548 30681 30685 28
24549 30686 30687 28
24550 30686 30688 28
24551 30686 30689 28
24552 30686 30690 28
24553 30691 30692 28
24554 30691 30693 28
24555 30691 30694 28
24556 30691 30695 28
24557 30696 30697 28
24558 30696 30698 28
24559 30696 30699 28
24560 30696 30700 28
24561 30701 30702 28
24562 30701 30703 28
24563 30701 30704 28
24564 30701 30705 28
24565 30706 30707 28
24566 30706 30708 28
24567 30706 30709 28
24568 30706 30710 28
24569 30711 30712 28
24570 30711 30713 28
24571 30711 30714 28
24572 30711 30715 28
24573 30716 30717 28
24574 30716 30718 28
24575 30716 30719 28
24576 30716 30720 28
24577 30721 30722 28
24578 30721 30723 28
24579 30721 30724 28
24580 30721 30725 28
24581 30726 30727 28
24582 30726 30728 28
24583 30726 30729 28
24584 30726 30730 28
24585 30731 30732 28
24586 30731 30733 28
24587 30731 30734 28
24588 30731 30735 28
24589 30736 30737 28
24590 30736 30738 28
24591 30736 30739 28
24592 30736 30740 28
24593 30741 30742 28
24594 30741 30743 28
24595 30741 30744 28
24596 30741 30745 28
24597 30746 30747 28
24598 30746 30748 28
24599 30746 30749 28
24600 30746 30750 28
24601 30751 30752 28
24602 30751 30753 28
24603 30751 30754 28
24604 30751 30755 28
24605 30756 30757 28
24606 30756 30758 28
24607 30756 30759 28
24608 30756 30760 28
24609 30761 30762 28
24610 30761 30763 28
24611 30761 30764 28
24612 30761 30765 28
24613 30766 30767 28
24614 30766 30768 28
24615 30766 30769 28
24616 30766 30770 28
24617 30771 30772 28
24618 30771 30773 28
24619 30771 30774 28
24620 30771 30775 28
24621 30776 30777 28
24622 30776 30778 28
24623 30776 30779 28
24624 30776 30780 28
24625 30781 30782 28
24626 30781 30783 28
24627 30781 30784 28
24628 30781 30785 28
24629 30786 30787 28
24630 30786 30788 28
24631 30786 30789 28
24632 30786 30790 28
24633 30791 30792 28
24634 30791 30793 28
24635 30791 30794 28
24636 30791 30795 28
24637 30796 30797 28
24638 30796 30798 28
24639 30796 30799 28
24640 30796 30800 28
24641 30801 30802 28
24642 30801 30803 28
24643 30801 30804 28
24644 30801 30805 28
24645 30806 30807 28
24646 30806 30808 28
24647 30806 30809 28
24648 30806 30810 28
24649 30811 30812 28
24650 30811 30813 28
24651 30811 30814 28
24652 30811 30815 28
24653 30816 30817 28
24654 30816 30818 28
24655 30816 30819 28
24656 30816 30820 28
24657 30821 30822 28
24658 30821 30823 28
24659 30821 30824 28
24660 30821 30825 28
24661 30826 30827 28
24662 30826 30828 28
24663 30826 30829 28
24664 30826 30830 28
24665 30831 30832 28
24666 30831 30833 28
24667 30831 30834 28
24668 30831 30835 28
24669 30836 30837 28
24670 30836 30838 28
24671 30836 30839 28
24672 30836 30840 28
24673 30841 30842 28
24674 30841 30843 28
24675 30841 30844 28
24676 30841 30845 28
24677 30846 30847 28
24678 30846 30848 28
24679 30846 30849 28
24680 30846 30850 28
24681 30851 30852 28
24682 30851 30853 28
24683 30851 30854 28
24684 30851 30855 28
24685 30856 30857 28
24686 30856 30858 28
24687 30856 30859 28
24688 30856 30860 28
24689 30861 30862 28
24690 30861 30863 28
24691 30861 30864 28
24692 30861 30865 28
24693 30866 30867 28
24694 30866 30868 28
24695 30866 30869 28
24696 30866 30870 28
24697 30871 30872 28
24698 30871 30873 28
24699 30871 30874 28
24700 30871 30875 28
24701 30876 30877 28
24702 30876 30878 28
24703 30876 30879 28
24704 30876 30880 28
24705 30881 30882 28
24706 30881 30883 28
24707 30881 30884 28
24708 30881 30885 28
24709 30886 30887 28
24710 30886 30888 28
24711 30886 30889 28
24712 30886 30890 28
24713 30891 30892 28
24714 30891 30893 28
24715 30891 30894 28
24716 30891 30895 28
24717 30896 30897 28
24718 30896 30898 28
24719 30896 30899 28
24720 30896 30900 28
24721 30901 30902 28
24722 30901 30903 28
24723 30901 30904 28
24724 30901 30905 28
24725 30906 30907 28
24726 30906 30908 28
24727 30906 30909 28
24728 30906 30910 28
24729 30911 30912 28
24730 30911 30913 28
24731 30911 30914 28
24732 30911 30915 28
24733 30916 30917 28
24734 30916 30918 28
24735 30916 30919 28
24736 30916 30920 28
24737 30921 30922 28
24738 30921 30923 28
24739 30921 30924 28
24740 30921 30925 28
24741 30926 30927 28
24742 30926 30928 28
24743 30926 30929 28
24744 30926 30930 28
24745 30931 30932 28
24746 30931 30933 28
24747 30931 30934 28
24748 30931 30935 28
24749 30936 30937 28
24750 30936 30938 28
24751 30936 30939 28
24752 30936 30940 28
24753 30941 30942 28
24754 30941 30943 28
24755 30941 30944 28
24756 30941 30945 28
24757 30946 30947 28
24758 30946 30948 28
24759 30946 30949 28
24760 30946 30950 28
24761 30951 30952 28
24762 30951 30953 28
24763 30951 30954 28
24764 30951 30955 28
24765 30956 30957 28
24766 30956 30958 28
24767 30956 30959 28
24768 30956 30960 28
24769 30961 30962 28
24770 30961 30963 28
24771 30961 30964 28
24772 30961 30965 28
24773 30966 30967 28
24774 30966 30968 28
24775 30966 30969 28
24776 30966 30970 28
24777 30971 30972 28
24778 30971 30973 28
24779 30971 30974 28
24780 30971 30975 28
24781 30976 30977 28
24782 30976 30978 28
24783 30976 30979 28
24784 30976 30980 28
24785 30981 30982 28
24786 30981 30983 28
24787 30981 30984 28
24788 30981 30985 28
24789 30986 30987 28
24790 30986 30988 28
24791 30986 30989 28
24792 30986 30990 28
24793 30991 30992 28
24794 30991 30993 28
24795 30991 30994 28
24796 30991 30995 28
24797 30996 30997 28
24798 30996 30998 28
24799 30996 30999 28
24800 30996 31000 28
24801 31001 31002 28
24802 31001 31003 28
24803 31001 31004 28
24804 31001 31005 28
24805 31006 31007 28
24806 31006 31008 28
24807 31006 31009 28
24808 31006 31010 28
24809 31011 31012 28
24810 31011 31013 28
24811 31011 31014 28
24812 31011 31015 28
24813 31016 31017 28
24814 31016 31018 28
24815 31016 31019 28
24816 31016 31020 28
24817 31021 31022 28
24818 31021 31023 28
24819 31021 31024 28
24820 31021 31025 28
24821 31026 31027 28
24822 31026 31028 28
24823 31026 31029 28
24824 31026 31030 28
24825 31031 31032 28
24826 31031 31033 28
24827 31031 31034 28
24828 31031 31035 28
24829 31036 31037 28
24830 31036 31038 28
24831 31036 31039 28
24832 31036 31040 28
24833 31041 31042 28
24834 31041 31043 28
24835 31041 31044 28
24836 31041 31045 28
24837 31046 31047 28
24838 31046 31048 28
24839 31046 31049 28
24840 31046 31050 28
24841 31051 31052 28
24842 31051 31053 28
24843 31051 31054 28
24844 31051 31055 28
24845 31056 31057 28
24846 31056 31058 28
24847 31056 31059 28
24848 31056 31060 28
24849 31061 31062 28
24850 31061 31063 28
24851 31061 31064 28
24852 31061 31065 28
24853 31066 31067 28
24854 31066 31068 28
24855 31066 31069 28
24856 31066 31070 28
24857 31071 31072 28
24858 31071 31073 28
24859 31071 31074 28
24860 31071 31075 28
24861 31076 31077 28
24862 31076 31078 28
24863 31076 31079 28
24864 31076 31080 28
24865 31081 31082 28
24866 31081 31083 28
24867 31081 31084 28
24868 31081 31085 28
24869 31086 31087 28
24870 31086 31088 28
24871 31086 31089 28
24872 31086 31090 28
24873 31091 31092 28
24874 31091 31093 28
24875 31091 31094 28
24876 31091 31095 28
24877 31096 31097 28
24878 31096 31098 28
24879 31096 31099 28
24880 31096 31100 28
24881 31101 31102 28
24882 31101 31103 28
24883 31101 31104 28
24884 31101 31105 28
24885 31106 31107 28
24886 31106 31108 28
24887 31106 31109 28
24888 31106 31110 28
24889 31111 31112 28
24890 31111 31113 28
24891 31111 31114 28
24892 31111 31115 28
24893 31116 31117 28
24894 31116 31118 28
24895 31116 31119 28
24896 31116 31120 28
24897 31121 31122 28
24898 31121 31123 28
24899 31121 31124 28
24900 31121 31125 28
24901 31126 31127 28
24902 31126 31128 28
24903 31126 31129 28
24904 31126 31130 28
24905 31131 31132 28
24906 31131 31133 28
24907 31131 31134 28
24908 31131 31135 28
24909 31136 31137 28
24910 31136 31138 28
24911 31136 31139 28
24912 31136 31140 28
24913 31141 31142 28
24914 31141 31143 28
24915 31141 31144 28
24916 31141 31145 28
24917 31146 31147 28
24918 31146 31148 28
24919 31146 31149 28
24920 31146 31150 28
24921 31151 31152 28
24922 31151 31153 28
24923 31151 31154 28
24924 31151 31155 28
24925 31156 31157 28
24926 31156 31158 28
24927 31156 31159 28
24928 31156 31160 28
24929 31161 31162 28
24930 31161 31163 28
24931 31161 31164 28
24932 31161 31165 28
24933 31166 31167 28
24934 31166 31168 28
24935 31166 31169 28
24936 31166 31170 28
24937 31171 31172 28
24938 31171 31173 28
24939 31171 31174 28
24940 31171 31175 28
24941 31176 31177 28
24942 31176 31178 28
24943 31176 31179 28
24944 31176 31180 28
24945 31181 31182 28
24946 31181 31183 28
24947 31181 31184 28
24948 31181 31185 28
24949 31186 31187 28
24950 31186 31188 28
24951 31186 31189 28
24952 31186 31190 28
24953 31191 31192 28
24954 31191 31193 28
24955 31191 31194 28
24956 31191 31195 28
24957 31196 31197 28
24958 31196 31198 28
24959 31196 31199 28
24960 31196 31200 28
24961 31201 31202 28
24962 31201 31203 28
24963 31201 31204 28
24964 31201 31205 28
24965 31206 31207 28
24966 31206 31208 28
24967 31206 31209 28
24968 31206 31210 28
24969 31211 31212 28
24970 31211 31213 28
24971 31211 31214 28
24972 31211 31215 28
24973 31216 31217 28
24974 31216 31218 28
24975 31216 31219 28
24976 31216 31220 28
24977 31221 31222 28
24978 31221 31223 28
24979 31221 31224 28
24980 31221 31225 28
24981 31226 31227 28
24982 31226 31228 28
24983 31226 31229 28
24984 31226 31230 28
24985 31231 31232 28
24986 31231 31233 28
24987 31231 31234 28
24988 31231 31235 28
24989 31236 31237 28
24990 31236 31238 28
24991 31236 31239 28
24992 31236 31240 28
24993 31241 31242 28
24994 31241 31243 28
24995 31241 31244 28
24996 31241 31245 28
24997 31246 31247 28
24998 31246 31248 28
24999 31246 31249 28
25000 31246 31250 28
25001 31251 31252 28
25002 31251 31253 28
25003 31251 31254 28
25004 31251 31255 28
25005 31256 31257 28
25006 31256 31258 28
25007 31256 31259 28
25008 31256 31260 28
25009 31261 31262 28
25010 31261 31263 28
25011 31261 31264 28
25012 31261 31265 28
25013 31266 31267 28
25014 31266 31268 28
25015 31266 31269 28
25016 31266 31270 28
25017 31271 31272 28
25018 31271 31273 28
25019 31271 31274 28
25020 31271 31275 28
25021 31276 31277 28
25022 31276 31278 28
25023 31276 31279 28
25024 31276 31280 28
25025 31281 31282 28
25026 31281 31283 28
25027 31281 31284 28
25028 31281 31285 28
25029 31286 31287 28
25030 31286 31288 28
25031 31286 31289 28
25032 31286 31290 28
25033 31291 31292 28
25034 31291 31293 28
25035 31291 31294 28
25036 31291 31295 28
25037 31296 31297 28
25038 31296 31298 28
25039 31296 31299 28
25040 31296 31300 28
25041 31301 31302 28
25042 31301 31303 28
25043 31301 31304 28
25044 31301 31305 28
25045 31306 31307 28
25046 31306 31308 28
25047 31306 31309 28
25048 31306 31310 28
25049 31311 31312 28
25050 31311 31313 28
25051 31311 31314 28
25052 31311 31315 28
25053 31316 31317 28
25054 31316 31318 28
25055 31316 31319 28
25056 31316 31320 28
25057 31321 31322 28
25058 31321 31323 28
25059 31321 31324 28
25060 31321 31325 28
25061 31326 31327 28
25062 31326 31328 28
25063 31326 31329 28
25064 31326 31330 28
25065 31331 31332 28
25066 31331 31333 28
25067 31331 31334 28
25068 31331 31335 28
25069 31336 31337 28
25070 31336 31338 28
25071 31336 31339 28
25072 31336 31340 28
25073 31341 31342 28
25074 31341 31343 28
25075 31341 31344 28
25076 31341 31345 28
25077 31346 31347 28
25078 31346 31348 28
25079 31346 31349 28
25080 31346 31350 28
25081 31351 31352 28
25082 31351 31353 28
25083 31351 31354 28
25084 31351 31355 28
25085 31356 31357 28
25086 31356 31358 28
25087 31356 31359 28
25088 31356 31360 28
25089 31361 31362 28
25090 31361 31363 28
25091 31361 31364 28
25092 31361 31365 28
25093 31366 31367 28
25094 31366 31368 28
25095 31366 31369 28
25096 31366 31370 28
25097 31371 31372 28
25098 31371 31373 28
25099 31371 31374 28
25100 31371 31375 28
25101 31376 31377 28
25102 31376 31378 28
25103 31376 31379 28
25104 31376 31380 28
25105 31381 31382 28
25106 31381 31383 28
25107 31381 31384 28
25108 31381 31385 28
25109 31386 31387 28
25110 31386 31388 28
25111 31386 31389 28
25112 31386 31390 28
25113 31391 31392 28
25114 31391 31393 28
25115 31391 31394 28
25116 31391 31395 28
25117 31396 31397 28
25118 31396 31398 28
25119 31396 31399 28
25120 31396 31400 28
25121 31401 31402 28
25122 31401 31403 28
25123 31401 31404 28
25124 31401 31405 28
25125 31406 31407 28
25126 31406 31408 28
25127 31406 31409 28
25128 31406 31410 28
25129 31411 31412 28
25130 31411 31413 28
25131 31411 31414 28
25132 31411 31415 28
25133 31416 31417 28
25134 31416 31418 28
25135 31416 31419 28
25136 31416 31420 28
25137 31421 31422 28
25138 31421 31423 28
25139 31421 31424 28
25140 31421 31425 28
25141 31426 31427 28
25142 31426 31428 28
25143 31426 31429 28
25144 31426 31430 28
25145 31431 31432 28
25146 31431 31433 28
25147 31431 31434 28
25148 31431 31435 28
25149 31436 31437 28
25150 31436 31438 28
25151 31436 31439 28
25152 31436 31440 28
25153 31441 31442 28
25154 31441 31443 28
25155 31441 31444 28
25156 31441 31445 28
25157 31446 31447 28
25158 31446 31448 28
25159 31446 31449 28
25160 31446 31450 28
25161 31451 31452 28
25162 31451 31453 28
25163 31451 31454 28
25164 31451 31455 28
25165 31456 31457 28
25166 31456 31458 28
25167 31456 31459 28
25168 31456 31460 28
25169 31461 31462 28
25170 31461 31463 28
25171 31461 31464 28
25172 31461 31465 28
25173 31466 31467 28
25174 31466 31468 28
25175 31466 31469 28
25176 31466 31470 28
25177 31471 31472 28
25178 31471 31473 28
25179 31471 31474 28
25180 31471 31475 28
25181 31476 31477 28
25182 31476 31478 28
25183 31476 31479 28
25184 31476 31480 28
25185 31481 31482 28
25186 31481 31483 28
25187 31481 31484 28
25188 31481 31485 28
25189 31486 31487 28
25190 31486 31488 28
25191 31486 31489 28
25192 31486 31490 28
25193 31491 31492 28
25194 31491 31493 28
25195 31491 31494 28
25196 31491 31495 28
25197 31496 31497 28
25198 31496 31498 28
25199 31496 31499 28
25200 31496 31500 28
25201 31501 31502 28
25202 31501 31503 28
25203 31501 31504 28
25204 31501 31505 28
25205 31506 31507 28
25206 31506 31508 28
25207 31506 31509 28
25208 31506 31510 28
25209 31511 31512 28
25210 31511 31513 28
25211 31511 31514 28
25212 31511 31515 28
25213 31516 31517 28
25214 31516 31518 28
25215 31516 31519 28
25216 31516 31520 28
25217 31521 31522 28
25218 31521 31523 28
25219 31521 31524 28
25220 31521 31525 28
25221 31526 31527 28
25222 31526 31528 28
25223 31526 31529 28
25224 31526 31530 28
25225 31531 31532 28
25226 31531 31533 28
25227 31531 31534 28
25228 31531 31535 28
25229 31536 31537 28
25230 31536 31538 28
25231 31536 31539 28
25232 31536 31540 28
25233 31541 31542 28
25234 31541 31543 28
25235 31541 31544 28
25236 31541 31545 28
25237 31546 31547 28
25238 31546 31548 28
25239 31546 31549 28
25240 31546 31550 28
25241 31551 31552 28
25242 31551 31553 28
25243 31551 31554 28
25244 31551 31555 28
25245 31556 31557 28
25246 31556 31558 28
25247 31556 31559 28
25248 31556 31560 28
25249 31561 31562 28
25250 31561 31563 28
25251 31561 31564 28
25252 31561 31565 28
25253 31566 31567 28
25254 31566 31568 28
25255 31566 31569 28
25256 31566 31570 28
25257 31571 31572 28
25258 31571 31573 28
25259 31571 31574 28
25260 31571 31575 28
25261 31576 31577 28
25262 31576 31578 28
25263 31576 31579 28
25264 31576 31580 28
25265 31581 31582 28
25266 31581 31583 28
25267 31581 31584 28
25268 31581 31585 28
25269 31586 31587 28
25270 31586 31588 28
25271 31586 31589 28
25272 31586 31590 28
25273 31591 31592 28
25274 31591 31593 28
25275 31591 31594 28
25276 31591 31595 28
25277 31596 31597 28
25278 31596 31598 28
25279 31596 31599 28
25280 31596 31600 28
25281 31601 31602 28
25282 31601 31603 28
25283 31601 31604 28
25284 31601 31605 28
25285 31606 31607 28
25286 31606 31608 28
25287 31606 31609 28
25288 31606 31610 28
25289 31611 31612 28
25290 31611 31613 28
25291 31611 31614 28
25292 31611 31615 28
25293 31616 31617 28
25294 31616 31618 28
25295 31616 31619 28
25296 31616 31620 28
25297 31621 31622 28
25298 31621 31623 28
25299 31621 31624 28
25300 31621 31625 28
25301 31626 31627 28
25302 31626 31628 28
25303 31626 31629 28
25304 31626 31630 28
25305 31631 31632 28
25306 31631 31633 28
25307 31631 31634 28
25308 31631 31635 28
25309 31636 31637 28
25310 31636 31638 28
25311 31636 31639 28
25312 31636 31640 28
25313 31641 31642 28
25314 31641 31643 28
25315 31641 31644 28
25316 31641 31645 28
25317 31646 31647 28
25318 31646 31648 28
25319 31646 31649 28
25320 31646 31650 28
25321 31651 31652 28
25322 31651 31653 28
25323 31651 31654 28
25324 31651 31655 28
25325 31656 31657 28
25326 31656 31658 28
25327 31656 31659 28
25328 31656 31660 28
25329 31661 31662 28
25330 31661 31663 28
25331 31661 31664 28
25332 31661 31665 28
25333 31666 31667 28
25334 31666 31668 28
25335 31666 31669 28
25336 31666 31670 28
25337 31671 31672 28
25338 31671 31673 28
25339 31671 31674 28
25340 31671 31675 28
25341 31676 31677 28
25342 31676 31678 28
25343 31676 31679 28
25344 31676 31680 28
25345 31681 31682 28
25346 31681 31683 28
25347 31681 31684 28
25348 31681 31685 28
25349 31686 31687 28
25350 31686 31688 28
25351 31686 31689 28
25352 31686 31690 28
25353 31691 31692 28
25354 31691 31693 28
25355 31691 31694 28
25356 31691 31695 28
25357 31696 31697 28
25358 31696 31698 28
25359 31696 31699 28
25360 31696 31700 28
25361 31701 31702 28
25362 31701 31703 28
25363 31701 31704 28
25364 31701 31705 28
25365 31706 31707 28
25366 31706 31708 28
25367 31706 31709 28
25368 31706 31710 28
25369 31711 31712 28
25370 31711 31713 28
25371 31711 31714 28
25372 31711 31715 28
25373 31716 31717 28
25374 31716 31718 28
25375 31716 31719 28
25376 31716 31720 28
25377 31721 31722 28
25378 31721 31723 28
25379 31721 31724 28
25380 31721 31725 28
25381 31726 31727 28
25382 31726 31728 28
25383 31726 31729 28
25384 31726 31730 28
25385 31731 31732 28
25386 31731 31733 28
25387 31731 31734 28
25388 31731 31735 28
25389 31736 31737 28
25390 31736 31738 28
25391 31736 31739 28
25392 31736 31740 28
25393 31741 31742 28
25394 31741 31743 28
25395 31741 31744 28
25396 31741 31745 28
25397 31746 31747 28
25398 31746 31748 28
25399 31746 31749 28
25400 31746 31750 28
25401 31751 31752 28
25402 31751 31753 28
25403 31751 31754 28
25404 31751 31755 28
25405 31756 31757 28
25406 31756 31758 28
25407 31756 31759 28
25408 31756 31760 28
25409 31761 31762 28
25410 31761 31763 28
25411 31761 31764 28
25412 31761 31765 28
25413 31766 31767 28
25414 31766 31768 28
25415 31766 31769 28
25416 31766 31770 28
25417 31771 31772 28
25418 31771 31773 28
25419 31771 31774 28
25420 31771 31775 28
25421 31776 31777 28
25422 31776 31778 28
25423 31776 31779 28
25424 31776 31780 28
25425 31781 31782 28
25426 31781 31783 28
25427 31781 31784 28
25428 31781 31785 28
25429 31786 31787 28
25430 31786 31788 28
25431 31786 31789 28
25432 31786 31790 28
25433 31791 31792 28
25434 31791 31793 28
25435 31791 31794 28
25436 31791 31795 28
25437 31796 31797 28
25438 31796 31798 28
25439 31796 31799 28
25440 31796 31800 28
25441 31801 31802 28
25442 31801 31803 28
25443 31801 31804 28
25444 31801 31805 28
25445 31806 31807 28
25446 31806 31808 28
25447 31806 31809 28
25448 31806 31810 28
25449 31811 31812 28
25450 31811 31813 28
25451 31811 31814 28
25452 31811 31815 28
25453 31816 31817 28
25454 31816 31818 28
25455 31816 31819 28
25456 31816 31820 28
25457 31821 31822 28
25458 31821 31823 28
25459 31821 31824 28
25460 31821 31825 28
25461 31826 31827 28
25462 31826 31828 28
25463 31826 31829 28
25464 31826 31830 28
25465 31831 31832 28
25466 31831 31833 28
25467 31831 31834 28
25468 31831 31835 28
25469 31836 31837 28
25470 31836 31838 28
25471 31836 31839 28
25472 31836 31840 28
25473 31841 31842 28
25474 31841 31843 28
25475 31841 31844 28
25476 31841 31845 28
25477 31846 31847 28
25478 31846 31848 28
25479 31846 31849 28
25480 31846 31850 28
25481 31851 31852 28
25482 31851 31853 28
25483 31851 31854 28
25484 31851 31855 28
25485 31856 31857 28
25486 31856 31858 28
25487 31856 31859 28
25488 31856 31860 28
25489 31861 31862 28
25490 31861 31863 28
25491 31861 31864 28
25492 31861 31865 28
25493 31866 31867 28
25494 31866 31868 28
25495 31866 31869 28
25496 31866 31870 28
25497 31871 31872 28
25498 31871 31873 28
25499 31871 31874 28
25500 31871 31875 28
25501 31876 31877 28
25502 31876 31878 28
25503 31876 31879 28
25504 31876 31880 28
25505 31881 31882 28
25506 31881 31883 28
25507 31881 31884 28
25508 31881 31885 28
25509 31886 31887 28
25510 31886 31888 28
25511 31886 31889 28
25512 31886 31890 28
25513 31891 31892 28
25514 31891 31893 28
25515 31891 31894 28
25516 31891 31895 28
25517 31896 31897 28
25518 31896 31898 28
25519 31896 31899 28
25520 31896 31900 28
25521 31901 31902 28
25522 31901 31903 28
25523 31901 31904 28
25524 31901 31905 28
25525 31906 31907 28
25526 31906 31908 28
25527 31906 31909 28
25528 31906 31910 28
25529 31911 31912 28
25530 31911 31913 28
25531 31911 31914 28
25532 31911 31915 28
25533 31916 31917 28
25534 31916 31918 28
25535 31916 31919 28
25536 31916 31920 28
25537 31921 31922 28
25538 31921 31923 28
25539 31921 31924 28
25540 31921 31925 28
25541 31926 31927 28
25542 31926 31928 28
25543 31926 31929 28
25544 31926 31930 28
25545 31931 31932 28
25546 31931 31933 28
25547 31931 31934 28
25548 31931 31935 28
25549 31936 31937 28
25550 31936 31938 28
25551 31936 31939 28
25552 31936 31940 28
25553 31941 31942 28
25554 31941 31943 28
25555 31941 31944 28
25556 31941 31945 28
25557 31946 31947 28
25558 31946 31948 28
25559 31946 31949 28
25560 31946 31950 28
25561 31951 31952 28
25562 31951 31953 28
25563 31951 31954 28
25564 31951 31955 28
25565 31956 31957 28
25566 31956 31958 28
25567 31956 31959 28
25568 31956 31960 28
25569 31961 31962 28
25570 31961 31963 28
25571 31961 31964 28
25572 31961 31965 28
25573 31966 31967 28
25574 31966 31968 28
25575 31966 31969 28
25576 31966 31970 28
25577 31971 31972 28
25578 31971 31973 28
25579 31971 31974 28
25580 31971 31975 28
25581 31976 31977 28
25582 31976 31978 28
25583 31976 31979 28
25584 31976 31980 28
25585 31981 31982 28
25586 31981 31983 28
25587 31981 31984 28
25588 31981 31985 28
25589 31986 31987 28
25590 31986 31988 28
25591 31986 31989 28
25592 31986 31990 28
25593 31991 31992 28
25594 31991 31993 28
25595 31991 31994 28
25596 31991 31995 28
25597 31996 31997 28
25598 31996 31998 28
25599 31996 31999 28
25600 31996 32000 28
25601 32001 32002 28
25602 32001 32003 28
25603 32001 32004 28
25604 32001 32005 28
25605 32006 32007 28
25606 32006 32008 28
25607 32006 32009 28
25608 32006 32010 28
25609 32011 32012 28
25610 32011 32013 28
25611 32011 32014 28
25612 32011 32015 28
25613 32016 32017 28
25614 32016 32018 28
25615 32016 32019 28
25616 32016 32020 28
25617 32021 32022 28
25618 32021 32023 28
25619 32021 32024 28
25620 32021 32025 28
25621 32026 32027 28
25622 32026 32028 28
25623 32026 32029 28
25624 32026 32030 28
25625 32031 32032 28
25626 32031 32033 28
25627 32031 32034 28
25628 32031 32035 28
25629 32036 32037 28
25630 32036 32038 28
25631 32036 32039 28
25632 32036 32040 28
25633 32041 32042 28
25634 32041 32043 28
25635 32041 32044 28
25636 32041 32045 28
25637 32046 32047 28
25638 32046 32048 28
25639 32046 32049 28
25640 32046 32050 28
25641 32051 32052 28
25642 32051 32053 28
25643 32051 32054 28
25644 32051 32055 28
25645 32056 32057 28
25646 32056 32058 28
25647 32056 32059 28
25648 32056 32060 28
25649 32061 32062 28
25650 32061 32063 28
25651 32061 32064 28
25652 32061 32065 28
25653 32066 32067 28
25654 32066 32068 28
25655 32066 32069 28
25656 32066 32070 28
25657 32071 32072 28
25658 32071 32073 28
25659 32071 32074 28
25660 32071 32075 28
25661 32076 32077 28
25662 32076 32078 28
25663 32076 32079 28
25664 32076 32080 28
25665 32081 32082 28
25666 32081 32083 28
25667 32081 32084 28
25668 32081 32085 28
25669 32086 32087 28
25670 32086 32088 28
25671 32086 32089 28
25672 32086 32090 28
25673 32091 32092 28
25674 32091 32093 28
25675 32091 32094 28
25676 32091 32095 28
25677 32096 32097 28
25678 32096 32098 28
25679 32096 32099 28
25680 32096 32100 28
25681 32101 32102 28
25682 32101 32103 28
25683 32101 32104 28
25684 32101 32105 28
25685 32106 32107 28
25686 32106 32108 28
25687 32106 32109 28
25688 32106 32110 28
25689 32111 32112 28
25690 32111 32113 28
25691 32111 32114 28
25692 32111 32115 28
25693 32116 32117 28
25694 32116 32118 28
25695 32116 32119 28
25696 32116 32120 28
25697 32121 32122 28
25698 32121 32123 28
25699 32121 32124 28
25700 32121 32125 28
25701 32126 32127 28
25702 32126 32128 28
25703 32126 32129 28
25704 32126 32130 28
25705 32131 32132 28
25706 32131 32133 28
25707 32131 32134 28
25708 32131 32135 28
25709 32136 32137 28
25710 32136 32138 28
25711 32136 32139 28
25712 32136 32140 28
25713 32141 32142 28
25714 32141 32143 28
25715 32141 32144 28
25716 32141 32145 28
25717 32146 32147 28
25718 32146 32148 28
25719 32146 32149 28
25720 32146 32150 28
25721 32151 32152 28
25722 32151 32153 28
25723 32151 32154 28
25724 32151 32155 28
25725 32156 32157 28
25726 32156 32158 28
25727 32156 32159 28
25728 32156 32160 28
25729 32161 32162 28
25730 32161 32163 28
25731 32161 32164 28
25732 32161 32165 28
25733 32166 32167 28
25734 32166 32168 28
25735 32166 32169 28
25736 32166 32170 28
25737 32171 32172 28
25738 32171 32173 28
25739 32171 32174 28
25740 32171 32175 28
25741 32176 32177 28
25742 32176 32178 28
25743 32176 32179 28
25744 32176 32180 28
25745 32181 32182 28
25746 32181 32183 28
25747 32181 32184 28
25748 32181 32185 28
25749 32186 32187 28
25750 32186 32188 28
25751 32186 32189 28
25752 32186 32190 28
25753 32191 32192 28
25754 32191 32193 28
25755 32191 32194 28
25756 32191 32195 28
25757 32196 32197 28
25758 32196 32198 28
25759 32196 32199 28
25760 32196 32200 28
25761 32201 32202 28
25762 32201 32203 28
25763 32201 32204 28
25764 32201 32205 28
25765 32206 32207 28
25766 32206 32208 28
25767 32206 32209 28
25768 32206 32210 28
25769 32211 32212 28
25770 32211 32213 28
25771 32211 32214 28
25772 32211 32215 28
25773 32216 32217 28
25774 32216 32218 28
25775 32216 32219 28
25776 32216 32220 28
25777 32221 32222 28
25778 32221 32223 28
25779 32221 32224 28
25780 32221 32225 28
25781 32226 32227 28
25782 32226 32228 28
25783 32226 32229 28
25784 32226 32230 28
25785 32231 32232 28
25786 32231 32233 28
25787 32231 32234 28
25788 32231 32235 28
25789 32236 32237 28
25790 32236 32238 28
25791 32236 32239 28
25792 32236 32240 28
25793 32241 32242 28
25794 32241 32243 28
25795 32241 32244 28
25796 32241 32245 28
25797 32246 32247 28
25798 32246 32248 28
25799 32246 32249 28
25800 32246 32250 28
25801 32251 32252 28
25802 32251 32253 28
25803 32251 32254 28
25804 32251 32255 28
25805 32256 32257 28
25806 32256 32258 28
25807 32256 32259 28
25808 32256 32260 28
25809 32261 32262 28
25810 32261 32263 28
25811 32261 32264 28
25812 32261 32265 28
25813 32266 32267 28
25814 32266 32268 28
25815 32266 32269 28
25816 32266 32270 28
25817 32271 32272 28
25818 32271 32273 28
25819 32271 32274 28
25820 32271 32275 28
25821 32276 32277 28
25822 32276 32278 28
25823 32276 32279 28
25824 32276 32280 28
25825 32281 32282 28
25826 32281 32283 28
25827 32281 32284 28
25828 32281 32285 28
25829 32286 32287 28
25830 32286 32288 28
25831 32286 32289 28
25832 32286 32290 28
25833 32291 32292 28
25834 32291 32293 28
25835 32291 32294 28
25836 32291 32295 28
25837 32296 32297 28
25838 32296 32298 28
25839 32296 32299 28
25840 32296 32300 28
25841 32301 32302 28
25842 32301 32303 28
25843 32301 32304 28
25844 32301 32305 28
25845 32306 32307 28
25846 32306 32308 28
25847 32306 32309 28
25848 32306 32310 28
25849 32311 32312 28
25850 32311 32313 28
25851 32311 32314 28
25852 32311 32315 28
25853 32316 32317 28
25854 32316 32318 28
25855 32316 32319 28
25856 32316 32320 28
25857 32321 32322 28
25858 32321 32323 28
25859 32321 32324 28
25860 32321 32325 28
25861 32326 32327 28
25862 32326 32328 28
25863 32326 32329 28
25864 32326 32330 28
25865 32331 32332 28
25866 32331 32333 28
25867 32331 32334 28
25868 32331 32335 28
25869 32336 32337 28
25870 32336 32338 28
25871 32336 32339 28
25872 32336 32340 28
25873 32341 32342 28
25874 32341 32343 28
25875 32341 32344 28
25876 32341 32345 28
25877 32346 32347 28
25878 32346 32348 28
25879 32346 32349 28
25880 32346 32350 28
25881 32351 32352 28
25882 32351 32353 28
25883 32351 32354 28
25884 32351 32355 28
25885 32356 32357 28
25886 32356 32358 28
25887 32356 32359 28
25888 32356 32360 28
25889 32361 32362 28
25890 32361 32363 28
25891 32361 32364 28
25892 32361 32365 28
25893 32366 32367 28
25894 32366 32368 28
25895 32366 32369 28
25896 32366 32370 28
25897 32371 32372 28
25898 32371 32373 28
25899 32371 32374 28
25900 32371 32375 28
25901 32376 32377 28
25902 32376 32378 28
25903 32376 32379 28
25904 32376 32380 28
25905 32381 32382 28
25906 32381 32383 28
25907 32381 32384 28
25908 32381 32385 28
25909 32386 32387 28
25910 32386 32388 28
25911 32386 32389 28
25912 32386 32390 28
25913 32391 32392 28
25914 32391 32393 28
25915 32391 32394 28
25916 32391 32395 28
25917 32396 32397 28
25918 32396 32398 28
25919 32396 32399 28
25920 32396 32400 28
25921 32401 32402 28
25922 32401 32403 28
25923 32401 32404 28
25924 32401 32405 28
25925 32406 32407 28
25926 32406 32408 28
25927 32406 32409 28
25928 32406 32410 28
25929 32411 32412 28
25930 32411 32413 28
25931 32411 32414 28
25932 32411 32415 28
25933 32416 32417 28
25934 32416 32418 28
25935 32416 32419 28
25936 32416 32420 28
25937 32421 32422 28
25938 32421 32423 28
25939 32421 32424 28
25940 32421 32425 28
25941 32426 32427 28
25942 32426 32428 28
25943 32426 32429 28
25944 32426 32430 28
25945 32431 32432 28
25946 32431 32433 28
25947 32431 32434 28
25948 32431 32435 28
25949 32436 32437 28
25950 32436 32438 28
25951 32436 32439 28
25952 32436 32440 28
25953 32441 32442 28
25954 32441 32443 28
25955 32441 32444 28
25956 32441 32445 28
25957 32446 32447 28
25958 32446 32448 28
25959 32446 32449 28
25960 32446 32450 28
25961 32451 32452 28
25962 32451 32453 28
25963 32451 32454 28
25964 32451 32455 28
25965 32456 32457 28
25966 32456 32458 28
25967 32456 32459 28
25968 32456 32460 28
25969 32461 32462 28
25970 32461 32463 28
25971 32461 32464 28
25972 32461 32465 28
25973 32466 32467 28
25974 32466 32468 28
25975 32466 32469 28
25976 32466 32470 28
25977 32471 32472 28
25978 32471 32473 28
25979 32471 32474 28
25980 32471 32475 28
25981 32476 32477 28
25982 32476 32478 28
25983 32476 32479 28
25984 32476 32480 28
25985 32481 32482 28
25986 32481 32483 28
25987 32481 32484 28
25988 32481 32485 28
25989 32486 32487 28
25990 32486 32488 28
25991 32486 32489 28
25992 32486 32490 28
25993 32491 32492 28
25994 32491 32493 28
25995 32491 32494 28
25996 32491 32495 28
25997 32496 32497 28
25998 32496 32498 28
25999 32496 32499 28
26000 32496 32500 28
26001 32501 32502 28
26002 32501 32503 28
26003 32501 32504 28
26004 32501 32505 28
26005 32506 32507 28
26006 32506 32508 28
26007 32506 32509 28
26008 32506 32510 28
26009 32511 32512 28
26010 32511 32513 28
26011 32511 32514 28
26012 32511 32515 28
26013 32516 32517 28
26014 32516 32518 28
26015 32516 32519 28
26016 32516 32520 28
26017 32521 32522 28
26018 32521 32523 28
26019 32521 32524 28
26020 32521 32525 28
26021 32526 32527 28
26022 32526 32528 28
26023 32526 32529 28
26024 32526 32530 28
26025 32531 32532 28
26026 32531 32533 28
26027 32531 32534 28
26028 32531 32535 28
26029 32536 32537 28
26030 32536 32538 28
26031 32536 32539 28
26032 32536 32540 28
26033 32541 32542 28
26034 32541 32543 28
26035 32541 32544 28
26036 32541 32545 28
26037 32546 32547 28
26038 32546 32548 28
26039 32546 32549 28
26040 32546 32550 28
26041 32551 32552 28
26042 32551 32553 28
26043 32551 32554 28
26044 32551 32555 28
26045 32556 32557 28
26046 32556 32558 28
26047 32556 32559 28
26048 32556 32560 28
26049 32561 32562 28
26050 32561 32563 28
26051 32561 32564 28
26052 32561 32565 28
26053 32566 32567 28
26054 32566 32568 28
26055 32566 32569 28
26056 32566 32570 28
26057 32571 32572 28
26058 32571 32573 28
26059 32571 32574 28
26060 32571 32575 28
26061 32576 32577 28
26062 32576 32578 28
26063 32576 32579 28
26064 32576 32580 28
26065 32581 32582 28
26066 32581 32583 28
26067 32581 32584 28
26068 32581 32585 28
26069 32586 32587 28
26070 32586 32588 28
26071 32586 32589 28
26072 32586 32590 28
26073 32591 32592 28
26074 32591 32593 28
26075 32591 32594 28
26076 32591 32595 28
26077 32596 32597 28
26078 32596 32598 28
26079 32596 32599 28
26080 32596 32600 28
26081 32601 32602 28
26082 32601 32603 28
26083 32601 32604 28
26084 32601 32605 28
26085 32606 32607 28
26086 32606 32608 28
26087 32606 32609 28
26088 32606 32610 28
26089 32611 32612 28
26090 32611 32613 28
26091 32611 32614 28
26092 32611 32615 28
26093 32616 32617 28
26094 32616 32618 28
26095 32616 32619 28
26096 32616 32620 28
26097 32621 32622 28
26098 32621 32623 28
26099 32621 32624 28
26100 32621 32625 28
26101 32626 32627 28
26102 32626 32628 28
26103 32626 32629 28
26104 32626 32630 28
26105 32631 32632 28
26106 32631 32633 28
26107 32631 32634 28
26108 32631 32635 28
26109 32636 32637 28
26110 32636 32638 28
26111 32636 32639 28
26112 32636 32640 28
26113 32641 32642 28
26114 32641 32643 28
26115 32641 32644 28
26116 32641 32645 28
26117 32646 32647 28
26118 32646 32648 28
26119 32646 32649 28
26120 32646 32650 28
26121 32651 32652 28
26122 32651 32653 28
26123 32651 32654 28
26124 32651 32655 28
26125 32656 32657 28
26126 32656 32658 28
26127 32656 32659 28
26128 32656 32660 28
26129 32661 32662 28
26130 32661 32663 28
26131 32661 32664 28
26132 32661 32665 28
26133 32666 32667 28
26134 32666 32668 28
26135 32666 32669 28
26136 32666 32670 28
26137 32671 32672 28
26138 32671 32673 28
26139 32671 32674 28
26140 32671 32675 28
26141 32676 32677 28
26142 32676 32678 28
26143 32676 32679 28
26144 32676 32680 28
26145 32681 32682 28
26146 32681 32683 28
26147 32681 32684 28
26148 32681 32685 28
26149 32686 32687 28
26150 32686 32688 28
26151 32686 32689 28
26152 32686 32690 28
26153 32691 32692 28
26154 32691 32693 28
26155 32691 32694 28
26156 32691 32695 28
26157 32696 32697 28
26158 32696 32698 28
26159 32696 32699 28
26160 32696 32700 28
26161 32701 32702 28
26162 32701 32703 28
26163 32701 32704 28
26164 32701 32705 28
26165 32706 32707 28
26166 32706 32708 28
26167 32706 32709 28
26168 32706 32710 28
26169 32711 32712 28
26170 32711 32713 28
26171 32711 32714 28
26172 32711 32715 28
26173 32716 32717 28
26174 32716 32718 28
26175 32716 32719 28
26176 32716 32720 28
26177 32721 32722 28
26178 32721 32723 28
26179 32721 32724 28
26180 32721 32725 28
26181 32726 32727 28
26182 32726 32728 28
26183 32726 32729 28
26184 32726 32730 28
26185 32731 32732 28
26186 32731 32733 28
26187 32731 32734 28
26188 32731 32735 28
26189 32736 32737 28
26190 32736 32738 28
26191 32736 32739 28
26192 32736 32740 28
26193 32741 32742 28
26194 32741 32743 28
26195 32741 32744 28
26196 32741 32745 28
26197 32746 32747 28
26198 32746 32748 28
26199 32746 32749 28
26200 32746 32750 28
26201 32751 32752 28
26202 32751 32753 28
26203 32751 32754 28
26204 32751 32755 28
26205 32756 32757 28
26206 32756 32758 28
26207 32756 32759 28
26208 32756 32760 28
26209 32761 32762 28
26210 32761 32763 28
26211 32761 32764 28
26212 32761 32765 28
26213 32766 32767 28
26214 32766 32768 28
26215 32766 32769 28
26216 32766 32770 28
26217 32771 32772 28
26218 32771 32773 28
26219 32771 32774 28
26220 32771 32775 28
26221 32776 32777 28
26222 32776 32778 28
26223 32776 32779 28
26224 32776 32780 28
26225 32781 32782 28
26226 32781 32783 28
26227 32781 32784 28
26228 32781 32785 28
26229 32786 32787 28
26230 32786 32788 28
26231 32786 32789 28
26232 32786 32790 28
26233 32791 32792 28
26234 32791 32793 28
26235 32791 32794 28
26236 32791 32795 28
26237 32796 32797 28
26238 32796 32798 28
26239 32796 32799 28
26240 32796 32800 28
26241 32801 32802 28
26242 32801 32803 28
26243 32801 32804 28
26244 32801 32805 28
26245 32806 32807 28
26246 32806 32808 28
26247 32806 32809 28
26248 32806 32810 28
26249 32811 32812 28
26250 32811 32813 28
26251 32811 32814 28
26252 32811 32815 28
26253 32816 32817 28
26254 32816 32818 28
26255 32816 32819 28
26256 32816 32820 28
26257 32821 32822 28
26258 32821 32823 28
26259 32821 32824 28
26260 32821 32825 28
26261 32826 32827 28
26262 32826 32828 28
26263 32826 32829 28
26264 32826 32830 28
26265 32831 32832 28
26266 32831 32833 28
26267 32831 32834 28
26268 32831 32835 28
26269 32836 32837 28
26270 32836 32838 28
26271 32836 32839 28
26272 32836 32840 28
26273 32841 32842 28
26274 32841 32843 28
26275 32841 32844 28
26276 32841 32845 28
26277 32846 32847 28
26278 32846 32848 28
26279 32846 32849 28
26280 32846 32850 28
26281 32851 32852 28
26282 32851 32853 28
26283 32851 32854 28
26284 32851 32855 28
26285 32856 32857 28
26286 32856 32858 28
26287 32856 32859 28
26288 32856 32860 28
26289 32861 32862 28
26290 32861 32863 28
26291 32861 32864 28
26292 32861 32865 28
26293 32866 32867 28
26294 32866 32868 28
26295 32866 32869 28
26296 32866 32870 28
26297 32871 32872 28
26298 32871 32873 28
26299 32871 32874 28
26300 32871 32875 28
26301 32876 32877 28
26302 32876 32878 28
26303 32876 32879 28
26304 32876 32880 28
26305 32881 32882 28
26306 32881 32883 28
26307 32881 32884 28
26308 32881 32885 28
26309 32886 32887 28
26310 32886 32888 28
26311 32886 32889 28
26312 32886 32890 28
26313 32891 32892 28
26314 32891 32893 28
26315 32891 32894 28
26316 32891 32895 28
26317 32896 32897 28
26318 32896 32898 28
26319 32896 32899 28
26320 32896 32900 28
26321 32901 32902 28
26322 32901 32903 28
26323 32901 32904 28
26324 32901 32905 28
26325 32906 32907 28
26326 32906 32908 28
26327 32906 32909 28
26328 32906 32910 28
26329 32911 32912 28
26330 32911 32913 28
26331 32911 32914 28
26332 32911 32915 28
26333 32916 32917 28
26334 32916 32918 28
26335 32916 32919 28
26336 32916 32920 28
26337 32921 32922 28
26338 32921 32923 28
26339 32921 32924 28
26340 32921 32925 28
26341 32926 32927 28
26342 32926 32928 28
26343 32926 32929 28
26344 32926 32930 28
26345 32931 32932 28
26346 32931 32933 28
26347 32931 32934 28
26348 32931 32935 28
26349 32936 32937 28
26350 32936 32938 28
26351 32936 32939 28
26352 32936 32940 28
26353 32941 32942 28
26354 32941 32943 28
26355 32941 32944 28
26356 32941 32945 28
26357 32946 32947 28
26358 32946 32948 28
26359 32946 32949 28
26360 32946 32950 28
26361 32951 32952 28
26362 32951 32953 28
26363 32951 32954 28
26364 32951 32955 28
26365 32956 32957 28
26366 32956 32958 28
26367 32956 32959 28
26368 32956 32960 28
26369 32961 32962 28
26370 32961 32963 28
26371 32961 32964 28
26372 32961 32965 28
26373 32966 32967 28
26374 32966 32968 28
26375 32966 32969 28
26376 32966 32970 28
26377 32971 32972 28
26378 32971 32973 28
26379 32971 32974 28
26380 32971 32975 28
26381 32976 32977 28
26382 32976 32978 28
26383 32976 32979 28
26384 32976 32980 28
26385 32981 32982 28
26386 32981 32983 28
26387 32981 32984 28
26388 32981 32985 28
26389 32986 32987 28
26390 32986 32988 28
26391 32986 32989 28
26392 32986 32990 28
26393 32991 32992 28
26394 32991 32993 28
26395 32991 32994 28
26396 32991 32995 28
26397 32996 32997 28
26398 32996 32998 28
26399 32996 32999 28
26400 32996 33000 28
26401 33001 33002 28
26402 33001 33003 28
26403 33001 33004 28
26404 33001 33005 28
26405 33006 33007 28
26406 33006 33008 28
26407 33006 33009 28
26408 33006 33010 28
26409 33011 33012 28
26410 33011 33013 28
26411 33011 33014 28
26412 33011 33015 28
26413 33016 33017 28
26414 33016 33018 28
26415 33016 33019 28
26416 33016 33020 28
26417 33021 33022 28
26418 33021 33023 28
26419 33021 33024 28
26420 33021 33025 28
26421 33026 33027 28
26422 33026 33028 28
26423 33026 33029 28
26424 33026 33030 28
26425 33031 33032 28
26426 33031 33033 28
26427 33031 33034 28
26428 33031 33035 28
26429 33036 33037 28
26430 33036 33038 28
26431 33036 33039 28
26432 33036 33040 28
26433 33041 33042 28
26434 33041 33043 28
26435 33041 33044 28
26436 33041 33045 28
26437 33046 33047 28
26438 33046 33048 28
26439 33046 33049 28
26440 33046 33050 28
26441 33051 33052 28
26442 33051 33053 28
26443 33051 33054 28
26444 33051 33055 28
26445 33056 33057 28
26446 33056 33058 28
26447 33056 33059 28
26448 33056 33060 28
26449 33061 33062 28
26450 33061 33063 28
26451 33061 33064 28
26452 33061 33065 28
26453 33066 33067 28
26454 33066 33068 28
26455 33066 33069 28
26456 33066 33070 28
26457 33071 33072 28
26458 33071 33073 28
26459 33071 33074 28
26460 33071 33075 28
26461 33076 33077 28
26462 33076 33078 28
26463 33076 33079 28
26464 33076 33080 28
26465 33081 33082 28
26466 33081 33083 28
26467 33081 33084 28
26468 33081 33085 28
26469 33086 33087 28
26470 33086 33088 28
26471 33086 33089 28
26472 33086 33090 28
26473 33091 33092 28
26474 33091 33093 28
26475 33091 33094 28
26476 33091 33095 28
26477 33096 33097 28
26478 33096 33098 28
26479 33096 33099 28
26480 33096 33100 28
26481 33101 33102 28
26482 33101 33103 28
26483 33101 33104 28
26484 33101 33105 28
26485 33106 33107 28
26486 33106 33108 28
26487 33106 33109 28
26488 33106 33110 28
26489 33111 33112 28
26490 33111 33113 28
26491 33111 33114 28
26492 33111 33115 28
26493 33116 33117 28
26494 33116 33118 28
26495 33116 33119 28
26496 33116 33120 28
26497 33121 33122 28
26498 33121 33123 28
26499 33121 33124 28
26500 33121 33125 28
26501 33126 33127 28
26502 33126 33128 28
26503 33126 33129 28
26504 33126 33130 28
26505 33131 33132 28
26506 33131 33133 28
26507 33131 33134 28
26508 33131 33135 28
26509 33136 33137 28
26510 33136 33138 28
26511 33136 33139 28
26512 33136 33140 28
26513 33141 33142 28
26514 33141 33143 28
26515 33141 33144 28
26516 33141 33145 28
26517 33146 33147 28
26518 33146 33148 28
26519 33146 33149 28
26520 33146 33150 28
26521 33151 33152 28
26522 33151 33153 28
26523 33151 33154 28
26524 33151 33155 28
26525 33156 33157 28
26526 33156 33158 28
26527 33156 33159 28
26528 33156 33160 28
26529 33161 33162 28
26530 33161 33163 28
26531 33161 33164 28
26532 33161 33165 28
26533 33166 33167 28
26534 33166 33168 28
26535 33166 33169 28
26536 33166 33170 28
26537 33171 33172 28
26538 33171 33173 28
26539 33171 33174 28
26540 33171 33175 28
26541 33176 33177 28
26542 33176 33178 28
26543 33176 33179 28
26544 33176 33180 28
26545 33181 33182 28
26546 33181 33183 28
26547 33181 33184 28
26548 33181 33185 28
26549 33186 33187 28
26550 33186 33188 28
26551 33186 33189 28
26552 33186 33190 28
26553 33191 33192 28
26554 33191 33193 28
26555 33191 33194 28
26556 33191 33195 28
26557 33196 33197 28
26558 33196 33198 28
26559 33196 33199 28
26560 33196 33200 28
26561 33201 33202 28
26562 33201 33203 28
26563 33201 33204 28
26564 33201 33205 28
26565 33206 33207 28
26566 33206 33208 28
26567 33206 33209 28
26568 33206 33210 28
26569 33211 33212 28
26570 33211 33213 28
26571 33211 33214 28
26572 33211 33215 28
26573 33216 33217 28
26574 33216 33218 28
26575 33216 33219 28
26576 33216 33220 28
26577 33221 33222 28
26578 33221 33223 28
26579 33221 33224 28
26580 33221 33225 28
26581 33226 33227 28
26582 33226 33228 28
26583 33226 33229 28
26584 33226 33230 28
26585 33231 33232 28
26586 33231 33233 28
26587 33231 33234 28
26588 33231 33235 28
26589 33236 33237 28
26590 33236 33238 28
26591 33236 33239 28
26592 33236 33240 28
26593 33241 33242 28
26594 33241 33243 28
26595 33241 33244 28
26596 33241 33245 28
26597 33246 33247 28
26598 33246 33248 28
26599 33246 33249 28
26600 33246 33250 28
26601 33251 33252 28
26602 33251 33253 28
26603 33251 33254 28
26604 33251 33255 28
26605 33256 33257 28
26606 33256 33258 28
26607 33256 33259 28
26608 33256 33260 28
26609 33261 33262 28
26610 33261 33263 28
26611 33261 33264 28
26612 33261 33265 28
26613 33266 33267 28
26614 33266 33268 28
26615 33266 33269 28
26616 33266 33270 28
26617 33271 33272 28
26618 33271 33273 28
26619 33271 33274 28
26620 33271 33275 28
26621 33276 33277 28
26622 33276 33278 28
26623 33276 33279 28
26624 33276 33280 28
26625 33281 33282 28
26626 33281 33283 28
26627 33281 33284 28
26628 33281 33285 28
26629 33286 33287 28
26630 33286 33288 28
26631 33286 33289 28
26632 33286 33290 28
26633 33291 33292 28
26634 33291 33293 28
26635 33291 33294 28
26636 33291 33295 28
26637 33296 33297 28
26638 33296 33298 28
26639 33296 33299 28
26640 33296 33300 28
26641 33301 33302 28
26642 33301 33303 28
26643 33301 33304 28
26644 33301 33305 28
26645 33306 33307 28
26646 33306 33308 28
26647 33306 33309 28
26648 33306 33310 28
26649 33311 33312 28
26650 33311 33313 28
26651 33311 33314 28
26652 33311 33315 28
26653 33316 33317 28
26654 33316 33318 28
26655 33316 33319 28
26656 33316 33320 28
26657 33321 33322 28
26658 33321 33323 28
26659 33321 33324 28
26660 33321 33325 28
26661 33326 33327 28
26662 33326 33328 28
26663 33326 33329 28
26664 33326 33330 28
26665 33331 33332 28
26666 33331 33333 28
26667 33331 33334 28
26668 33331 33335 28
26669 33336 33337 28
26670 33336 33338 28
26671 33336 33339 28
26672 33336 33340 28
26673 33341 33342 28
26674 33341 33343 28
26675 33341 33344 28
26676 33341 33345 28
26677 33346 33347 28
26678 33346 33348 28
26679 33346 33349 28
26680 33346 33350 28
26681 33351 33352 28
26682 33351 33353 28
26683 33351 33354 28
26684 33351 33355 28
26685 33356 33357 28
26686 33356 33358 28
26687 33356 33359 28
26688 33356 33360 28
26689 33361 33362 28
26690 33361 33363 28
26691 33361 33364 28
26692 33361 33365 28
26693 33366 33367 28
26694 33366 33368 28
26695 33366 33369 28
26696 33366 33370 28
26697 33371 33372 28
26698 33371 33373 28
26699 33371 33374 28
26700 33371 33375 28
26701 33376 33377 28
26702 33376 33378 28
26703 33376 33379 28
26704 33376 33380 28
26705 33381 33382 28
26706 33381 33383 28
26707 33381 33384 28
26708 33381 33385 28
26709 33386 33387 28
26710 33386 33388 28
26711 33386 33389 28
26712 33386 33390 28
26713 33391 33392 28
26714 33391 33393 28
26715 33391 33394 28
26716 33391 33395 28
26717 33396 33397 28
26718 33396 33398 28
26719 33396 33399 28
26720 33396 33400 28
26721 33401 33402 28
26722 33401 33403 28
26723 33401 33404 28
26724 33401 33405 28
26725 33406 33407 28
26726 33406 33408 28
26727 33406 33409 28
26728 33406 33410 28
26729 33411 33412 28
26730 33411 33413 28
26731 33411 33414 28
26732 33411 33415 28
26733 33416 33417 28
26734 33416 33418 28
26735 33416 33419 28
26736 33416 33420 28
26737 33421 33422 28
26738 33421 33423 28
26739 33421 33424 28
26740 33421 33425 28
26741 33426 33427 28
26742 33426 33428 28
26743 33426 33429 28
26744 33426 33430 28
26745 33431 33432 28
26746 33431 33433 28
26747 33431 33434 28
26748 33431 33435 28
26749 33436 33437 28
26750 33436 33438 28
26751 33436 33439 28
26752 33436 33440 28
26753 33441 33442 28
26754 33441 33443 28
26755 33441 33444 28
26756 33441 33445 28
26757 33446 33447 28
26758 33446 33448 28
26759 33446 33449 28
26760 33446 33450 28
26761 33451 33452 28
26762 33451 33453 28
26763 33451 33454 28
26764 33451 33455 28
26765 33456 33457 28
26766 33456 33458 28
26767 33456 33459 28
26768 33456 33460 28
26769 33461 33462 28
26770 33461 33463 28
26771 33461 33464 28
26772 33461 33465 28
26773 33466 33467 28
26774 33466 33468 28
26775 33466 33469 28
26776 33466 33470 28
26777 33471 33472 28
26778 33471 33473 28
26779 33471 33474 28
26780 33471 33475 28
26781 33476 33477 28
26782 33476 33478 28
26783 33476 33479 28
26784 33476 33480 28
26785 33481 33482 28
26786 33481 33483 28
26787 33481 33484 28
26788 33481 33485 28
26789 33486 33487 28
26790 33486 33488 28
26791 33486 33489 28
26792 33486 33490 28
26793 33491 33492 28
26794 33491 33493 28
26795 33491 33494 28
26796 33491 33495 28
26797 33496 33497 28
26798 33496 33498 28
26799 33496 33499 28
26800 33496 33500 28
26801 33501 33502 28
26802 33501 33503 28
26803 33501 33504 28
26804 33501 33505 28
26805 33506 33507 28
26806 33506 33508 28
26807 33506 33509 28
26808 33506 33510 28
26809 33511 33512 28
26810 33511 33513 28
26811 33511 33514 28
26812 33511 33515 28
26813 33516 33517 28
26814 33516 33518 28
26815 33516 33519 28
26816 33516 33520 28
26817 33521 33522 28
26818 33521 33523 28
26819 33521 33524 28
26820 33521 33525 28
26821 33526 33527 28
26822 33526 33528 28
26823 33526 33529 28
26824 33526 33530 28
26825 33531 33532 28
26826 33531 33533 28
26827 33531 33534 28
26828 33531 33535 28
26829 33536 33537 28
26830 33536 33538 28
26831 33536 33539 28
26832 33536 33540 28
26833 33541 33542 28
26834 33541 33543 28
26835 33541 33544 28
26836 33541 33545 28
26837 33546 33547 28
26838 33546 33548 28
26839 33546 33549 28
26840 33546 33550 28
26841 33551 33552 28
26842 33551 33553 28
26843 33551 33554 28
26844 33551 33555 28
26845 33556 33557 28
26846 33556 33558 28
26847 33556 33559 28
26848 33556 33560 28
26849 33561 33562 28
26850 33561 33563 28
26851 33561 33564 28
26852 33561 33565 28
26853 33566 33567 28
26854 33566 33568 28
26855 33566 33569 28
26856 33566 33570 28
26857 33571 33572 28
26858 33571 33573 28
26859 33571 33574 28
26860 33571 33575 28
26861 33576 33577 28
26862 33576 33578 28
26863 33576 33579 28
26864 33576 33580 28
26865 33581 33582 28
26866 33581 33583 28
26867 33581 33584 28
26868 33581 33585 28
26869 33586 33587 28
26870 33586 33588 28
26871 33586 33589 28
26872 33586 33590 28
26873 33591 33592 28
26874 33591 33593 28
26875 33591 33594 28
26876 33591 33595 28
26877 33596 33597 28
26878 33596 33598 28
26879 33596 33599 28
26880 33596 33600 28
26881 33601 33602 28
26882 33601 33603 28
26883 33601 33604 28
26884 33601 33605 28
26885 33606 33607 28
26886 33606 33608 28
26887 33606 33609 28
26888 33606 33610 28
26889 33611 33612 28
26890 33611 33613 28
26891 33611 33614 28
26892 33611 33615 28
26893 33616 33617 28
26894 33616 33618 28
26895 33616 33619 28
26896 33616 33620 28
26897 33621 33622 28
26898 33621 33623 28
26899 33621 33624 28
26900 33621 33625 28
26901 33626 33627 28
26902 33626 33628 28
26903 33626 33629 28
26904 33626 33630 28
26905 33631 33632 28
26906 33631 33633 28
26907 33631 33634 28
26908 33631 33635 28
26909 33636 33637 28
26910 33636 33638 28
26911 33636 33639 28
26912 33636 33640 28
26913 33641 33642 28
26914 33641 33643 28
26915 33641 33644 28
26916 33641 33645 28
26917 33646 33647 28
26918 33646 33648 28
26919 33646 33649 28
26920 33646 33650 28
26921 33651 33652 28
26922 33651 33653 28
26923 33651 33654 28
26924 33651 33655 28
26925 33656 33657 28
26926 33656 33658 28
26927 33656 33659 28
26928 33656 33660 28
26929 33661 33662 28
26930 33661 33663 28
26931 33661 33664 28
26932 33661 33665 28
26933 33666 33667 28
26934 33666 33668 28
26935 33666 33669 28
26936 33666 33670 28
26937 33671 33672 28
26938 33671 33673 28
26939 33671 33674 28
26940 33671 33675 28
26941 33676 33677 28
26942 33676 33678 28
26943 33676 33679 28
26944 33676 33680 28
26945 33681 33682 28
26946 33681 33683 28
26947 33681 33684 28
26948 33681 33685 28
26949 33686 33687 28
26950 33686 33688 28
26951 33686 33689 28
26952 33686 33690 28
26953 33691 33692 28
26954 33691 33693 28
26955 33691 33694 28
26956 33691 33695 28
26957 33696 33697 28
26958 33696 33698 28
26959 33696 33699 28
26960 33696 33700 28
26961 33701 33702 28
26962 33701 33703 28
26963 33701 33704 28
26964 33701 33705 28
26965 33706 33707 28
26966 33706 33708 28
26967 33706 33709 28
26968 33706 33710 28
26969 33711 33712 28
26970 33711 33713 28
26971 33711 33714 28
26972 33711 33715 28
26973 33716 33717 28
26974 33716 33718 28
26975 33716 33719 28
26976 33716 33720 28
26977 33721 33722 28
26978 33721 33723 28
26979 33721 33724 28
26980 33721 33725 28
26981 33726 33727 28
26982 33726 33728 28
26983 33726 33729 28
26984 33726 33730 28
26985 33731 33732 28
26986 33731 33733 28
26987 33731 33734 28
26988 33731 33735 28
26989 33736 33737 28
26990 33736 33738 28
26991 33736 33739 28
26992 33736 33740 28
26993 33741 33742 28
26994 33741 33743 28
26995 33741 33744 28
26996 33741 33745 28
26997 33746 33747 28
26998 33746 33748 28
26999 33746 33749 28
27000 33746 33750 28
27001 33751 33752 28
27002 33751 33753 28
27003 33751 33754 28
27004 33751 33755 28
27005 33756 33757 28
27006 33756 33758 28
27007 33756 33759 28
27008 33756 33760 28
27009 33761 33762 28
27010 33761 33763 28
27011 33761 33764 28
27012 33761 33765 28
27013 33766 33767 28
27014 33766 33768 28
27015 33766 33769 28
27016 33766 33770 28
27017 33771 33772 28
27018 33771 33773 28
27019 33771 33774 28
27020 33771 33775 28
27021 33776 33777 28
27022 33776 33778 28
27023 33776 33779 28
27024 33776 33780 28
27025 33781 33782 28
27026 33781 33783 28
27027 33781 33784 28
27028 33781 33785 28
27029 33786 33787 28
27030 33786 33788 28
27031 33786 33789 28
27032 33786 33790 28
27033 33791 33792 28
27034 33791 33793 28
27035 33791 33794 28
27036 33791 33795 28
27037 33796 33797 28
27038 33796 33798 28
27039 33796 33799 28
27040 33796 33800 28
27041 33801 33802 28
27042 33801 33803 28
27043 33801 33804 28
27044 33801 33805 28
27045 33806 33807 28
27046 33806 33808 28
27047 33806 33809 28
27048 33806 33810 28
27049 33811 33812 28
27050 33811 33813 28
27051 33811 33814 28
27052 33811 33815 28
27053 33816 33817 28
27054 33816 33818 28
27055 33816 33819 28
27056 33816 33820 28
27057 33821 33822 28
27058 33821 33823 28
27059 33821 33824 28
27060 33821 33825 28
27061 33826 33827 28
27062 33826 33828 28
27063 33826 33829 28
27064 33826 33830 28
27065 33831 33832 28
27066 33831 33833 28
27067 33831 33834 28
27068 33831 33835 28
27069 33836 33837 28
27070 33836 33838 28
27071 33836 33839 28
27072 33836 33840 28
27073 33841 33842 28
27074 33841 33843 28
27075 33841 33844 28
27076 33841 33845 28
27077 33846 33847 28
27078 33846 33848 28
27079 33846 33849 28
27080 33846 33850 28
27081 33851 33852 28
27082 33851 33853 28
27083 33851 33854 28
27084 33851 33855 28
27085 33856 33857 28
27086 33856 33858 28
27087 33856 33859 28
27088 33856 33860 28
27089 33861 33862 28
27090 33861 33863 28
27091 33861 33864 28
27092 33861 33865 28
27093 33866 33867 28
27094 33866 33868 28
27095 33866 33869 28
27096 33866 33870 28
27097 33871 33872 28
27098 33871 33873 28
27099 33871 33874 28
27100 33871 33875 28
27101 33876 33877 28
27102 33876 33878 28
27103 33876 33879 28
27104 33876 33880 28
27105 33881 33882 28
27106 33881 33883 28
27107 33881 33884 28
27108 33881 33885 28
27109 33886 33887 28
27110 33886 33888 28
27111 33886 33889 28
27112 33886 33890 28
27113 33891 33892 28
27114 33891 33893 28
27115 33891 33894 28
27116 33891 33895 28
27117 33896 33897 28
27118 33896 33898 28
27119 33896 33899 28
27120 33896 33900 28
27121 33901 33902 28
27122 33901 33903 28
27123 33901 33904 28
27124 33901 33905 28
27125 33906 33907 28
27126 33906 33908 28
27127 33906 33909 28
27128 33906 33910 28
27129 33911 33912 28
27130 33911 33913 28
27131 33911 33914 28
27132 33911 33915 28
27133 33916 33917 28
27134 33916 33918 28
27135 33916 33919 28
27136 33916 33920 28
27137 33921 33922 28
27138 33921 33923 28
27139 33921 33924 28
27140 33921 33925 28
27141 33926 33927 28
27142 33926 33928 28
27143 33926 33929 28
27144 33926 33930 28
27145 33931 33932 28
27146 33931 33933 28
27147 33931 33934 28
27148 33931 33935 28
27149 33936 33937 28
27150 33936 33938 28
27151 33936 33939 28
27152 33936 33940 28
27153 33941 33942 28
27154 33941 33943 28
27155 33941 33944 28
27156 33941 33945 28
27157 33946 33947 28
27158 33946 33948 28
27159 33946 33949 28
27160 33946 33950 28
27161 33951 33952 28
27162 33951 33953 28
27163 33951 33954 28
27164 33951 33955 28
27165 33956 33957 28
27166 33956 33958 28
27167 33956 33959 28
27168 33956 33960 28
27169 33961 33962 28
27170 33961 33963 28
27171 33961 33964 28
27172 33961 33965 28
27173 33966 33967 28
27174 33966 33968 28
27175 33966 33969 28
27176 33966 33970 28
27177 33971 33972 28
27178 33971 33973 28
27179 33971 33974 28
27180 33971 33975 28
27181 33976 33977 28
27182 33976 33978 28
27183 33976 33979 28
27184 33976 33980 28
27185 33981 33982 28
27186 33981 33983 28
27187 33981 33984 28
27188 33981 33985 28
27189 33986 33987 28
27190 33986 33988 28
27191 33986 33989 28
27192 33986 33990 28
27193 33991 33992 28
27194 33991 33993 28
27195 33991 33994 28
27196 33991 33995 28
27197 33996 33997 28
27198 33996 33998 28
27199 33996 33999 28
27200 33996 34000 28
27201 34001 34002 28
27202 34001 34003 28
27203 34001 34004 28
27204 34001 34005 28
27205 34006 34007 28
27206 34006 34008 28
27207 34006 34009 28
27208 34006 34010 28
27209 34011 34012 28
27210 34011 34013 28
27211 34011 34014 28
27212 34011 34015 28
27213 34016 34017 28
27214 34016 34018 28
27215 34016 34019 28
27216 34016 34020 28
27217 34021 34022 28
27218 34021 34023 28
27219 34021 34024 28
27220 34021 34025 28
27221 34026 34027 28
27222 34026 34028 28
27223 34026 34029 28
27224 34026 34030 28
27225 34031 34032 28
27226 34031 34033 28
27227 34031 34034 28
27228 34031 34035 28
27229 34036 34037 28
27230 34036 34038 28
27231 34036 34039 28
27232 34036 34040 28
27233 34041 34042 28
27234 34041 34043 28
27235 34041 34044 28
27236 34041 34045 28
27237 34046 34047 28
27238 34046 34048 28
27239 34046 34049 28
27240 34046 34050 28
27241 34051 34052 28
27242 34051 34053 28
27243 34051 34054 28
27244 34051 34055 28
27245 34056 34057 28
27246 34056 34058 28
27247 34056 34059 28
27248 34056 34060 28
27249 34061 34062 28
27250 34061 34063 28
27251 34061 34064 28
27252 34061 34065 28
27253 34066 34067 28
27254 34066 34068 28
27255 34066 34069 28
27256 34066 34070 28
27257 34071 34072 28
27258 34071 34073 28
27259 34071 34074 28
27260 34071 34075 28
27261 34076 34077 28
27262 34076 34078 28
27263 34076 34079 28
27264 34076 34080 28
27265 34081 34082 28
27266 34081 34083 28
27267 34081 34084 28
27268 34081 34085 28
27269 34086 34087 28
27270 34086 34088 28
27271 34086 34089 28
27272 34086 34090 28
27273 34091 34092 28
27274 34091 34093 28
27275 34091 34094 28
27276 34091 34095 28
27277 34096 34097 28
27278 34096 34098 28
27279 34096 34099 28
27280 34096 34100 28
27281 34101 34102 28
27282 34101 34103 28
27283 34101 34104 28
27284 34101 34105 28
27285 34106 34107 28
27286 34106 34108 28
27287 34106 34109 28
27288 34106 34110 28
27289 34111 34112 28
27290 34111 34113 28
27291 34111 34114 28
27292 34111 34115 28
27293 34116 34117 28
27294 34116 34118 28
27295 34116 34119 28
27296 34116 34120 28
27297 34121 34122 28
27298 34121 34123 28
27299 34121 34124 28
27300 34121 34125 28
27301 34126 34127 28
27302 34126 34128 28
27303 34126 34129 28
27304 34126 34130 28
27305 34131 34132 28
27306 34131 34133 28
27307 34131 34134 28
27308 34131 34135 28
27309 34136 34137 28
27310 34136 34138 28
27311 34136 34139 28
27312 34136 34140 28
27313 34141 34142 28
27314 34141 34143 28
27315 34141 34144 28
27316 34141 34145 28
27317 34146 34147 28
27318 34146 34148 28
27319 34146 34149 28
27320 34146 34150 28
27321 34151 34152 28
27322 34151 34153 28
27323 34151 34154 28
27324 34151 34155 28
27325 34156 34157 28
27326 34156 34158 28
27327 34156 34159 28
27328 34156 34160 28
27329 34161 34162 28
27330 34161 34163 28
27331 34161 34164 28
27332 34161 34165 28
27333 34166 34167 28
27334 34166 34168 28
27335 34166 34169 28
27336 34166 34170 28
27337 34171 34172 28
27338 34171 34173 28
27339 34171 34174 28
27340 34171 34175 28
27341 34176 34177 28
27342 34176 34178 28
27343 34176 34179 28
27344 34176 34180 28
27345 34181 34182 28
27346 34181 34183 28
27347 34181 34184 28
27348 34181 34185 28
27349 34186 34187 28
27350 34186 34188 28
27351 34186 34189 28
27352 34186 34190 28
27353 34191 34192 28
27354 34191 34193 28
27355 34191 34194 28
27356 34191 34195 28
27357 34196 34197 28
27358 34196 34198 28
27359 34196 34199 28
27360 34196 34200 28
27361 34201 34202 28
27362 34201 34203 28
27363 34201 34204 28
27364 34201 34205 28
27365 34206 34207 28
27366 34206 34208 28
27367 34206 34209 28
27368 34206 34210 28
27369 34211 34212 28
27370 34211 34213 28
27371 34211 34214 28
27372 34211 34215 28
27373 34216 34217 28
27374 34216 34218 28
27375 34216 34219 28
27376 34216 34220 28
27377 34221 34222 28
27378 34221 34223 28
27379 34221 34224 28
27380 34221 34225 28
27381 34226 34227 28
27382 34226 34228 28
27383 34226 34229 28
27384 34226 34230 28
27385 34231 34232 28
27386 34231 34233 28
27387 34231 34234 28
27388 34231 34235 28
27389 34236 34237 28
27390 34236 34238 28
27391 34236 34239 28
27392 34236 34240 28
27393 34241 34242 28
27394 34241 34243 28
27395 34241 34244 28
27396 34241 34245 28
27397 34246 34247 28
27398 34246 34248 28
27399 34246 34249 28
27400 34246 34250 28
27401 34251 34252 28
27402 34251 34253 28
27403 34251 34254 28
27404 34251 34255 28
27405 34256 34257 28
27406 34256 34258 28
27407 34256 34259 28
27408 34256 34260 28
27409 34261 34262 28
27410 34261 34263 28
27411 34261 34264 28
27412 34261 34265 28
27413 34266 34267 28
27414 34266 34268 28
27415 34266 34269 28
27416 34266 34270 28
27417 34271 34272 28
27418 34271 34273 28
27419 34271 34274 28
27420 34271 34275 28
27421 34276 34277 28
27422 34276 34278 28
27423 34276 34279 28
27424 34276 34280 28
27425 34281 34282 28
27426 34281 34283 28
27427 34281 34284 28
27428 34281 34285 28
27429 34286 34287 28
27430 34286 34288 28
27431 34286 34289 28
27432 34286 34290 28
27433 34291 34292 28
27434 34291 34293 28
27435 34291 34294 28
27436 34291 34295 28
27437 34296 34297 28
27438 34296 34298 28
27439 34296 34299 28
27440 34296 34300 28
27441 34301 34302 28
27442 34301 34303 28
27443 34301 34304 28
27444 34301 34305 28
27445 34306 34307 28
27446 34306 34308 28
27447 34306 34309 28
27448 34306 34310 28
27449 34311 34312 28
27450 34311 34313 28
27451 34311 34314 28
27452 34311 34315 28
27453 34316 34317 28
27454 34316 34318 28
27455 34316 34319 28
27456 34316 34320 28
27457 34321 34322 28
27458 34321 34323 28
27459 34321 34324 28
27460 34321 34325 28
27461 34326 34327 28
27462 34326 34328 28
27463 34326 34329 28
27464 34326 34330 28
27465 34331 34332 28
27466 34331 34333 28
27467 34331 34334 28
27468 34331 34335 28
27469 34336 34337 28
27470 34336 34338 28
27471 34336 34339 28
27472 34336 34340 28
27473 34341 34342 28
27474 34341 34343 28
27475 34341 34344 28
27476 34341 34345 28
27477 34346 34347 28
27478 34346 34348 28
27479 34346 34349 28
27480 34346 34350 28
27481 34351 34352 28
27482 34351 34353 28
27483 34351 34354 28
27484 34351 34355 28
27485 34356 34357 28
27486 34356 34358 28
27487 34356 34359 28
27488 34356 34360 28
27489 34361 34362 28
27490 34361 34363 28
27491 34361 34364 28
27492 34361 34365 28
27493 34366 34367 28
27494 34366 34368 28
27495 34366 34369 28
27496 34366 34370 28
27497 34371 34372 28
27498 34371 34373 28
27499 34371 34374 28
27500 34371 34375 28
27501 34376 34377 28
27502 34376 34378 28
27503 34376 34379 28
27504 34376 34380 28
27505 34381 34382 28
27506 34381 34383 28
27507 34381 34384 28
27508 34381 34385 28
27509 34386 34387 28
27510 34386 34388 28
27511 34386 34389 28
27512 34386 34390 28
27513 34391 34392 28
27514 34391 34393 28
27515 34391 34394 28
27516 34391 34395 28
27517 34396 34397 28
27518 34396 34398 28
27519 34396 34399 28
27520 34396 34400 28
27521 34401 34402 28
27522 34401 34403 28
27523 34401 34404 28
27524 34401 34405 28
27525 34406 34407 28
27526 34406 34408 28
27527 34406 34409 28
27528 34406 34410 28
27529 34411 34412 28
27530 34411 34413 28
27531 34411 34414 28
27532 34411 34415 28
27533 34416 34417 28
27534 34416 34418 28
27535 34416 34419 28
27536 34416 34420 28
27537 34421 34422 28
27538 34421 34423 28
27539 34421 34424 28
27540 34421 34425 28
27541 34426 34427 28
27542 34426 34428 28
27543 34426 34429 28
27544 34426 34430 28
27545 34431 34432 28
27546 34431 34433 28
27547 34431 34434 28
27548 34431 34435 28
27549 34436 34437 28
27550 34436 34438 28
27551 34436 34439 28
27552 34436 34440 28
27553 34441 34442 28
27554 34441 34443 28
27555 34441 34444 28
27556 34441 34445 28
27557 34446 34447 28
27558 34446 34448 28
27559 34446 34449 28
27560 34446 34450 28
27561 34451 34452 28
27562 34451 34453 28
27563 34451 34454 28
27564 34451 34455 28
27565 34456 34457 28
27566 34456 34458 28
27567 34456 34459 28
27568 34456 34460 28
27569 34461 34462 28
27570 34461 34463 28
27571 34461 34464 28
27572 34461 34465 28
27573 34466 34467 28
27574 34466 34468 28
27575 34466 34469 28
27576 34466 34470 28
27577 34471 34472 28
27578 34471 34473 28
27579 34471 34474 28
27580 34471 34475 28
27581 34476 34477 28
27582 34476 34478 28
27583 34476 34479 28
27584 34476 34480 28
27585 34481 34482 28
27586 34481 34483 28
27587 34481 34484 28
27588 34481 34485 28
27589 34486 34487 28
27590 34486 34488 28
27591 34486 34489 28
27592 34486 34490 28
27593 34491 34492 28
27594 34491 34493 28
27595 34491 34494 28
27596 34491 34495 28
27597 34496 34497 28
27598 34496 34498 28
27599 34496 34499 28
27600 34496 34500 28
27601 34501 34502 28
27602 34501 34503 28
27603 34501 34504 28
27604 34501 34505 28
27605 34506 34507 28
27606 34506 34508 28
27607 34506 34509 28
27608 34506 34510 28
27609 34511 34512 28
27610 34511 34513 28
27611 34511 34514 28
27612 34511 34515 28
27613 34516 34517 28
27614 34516 34518 28
27615 34516 34519 28
27616 34516 34520 28
27617 34521 34522 28
27618 34521 34523 28
27619 34521 34524 28
27620 34521 34525 28
27621 34526 34527 28
27622 34526 34528 28
27623 34526 34529 28
27624 34526 34530 28
27625 34531 34532 28
27626 34531 34533 28
27627 34531 34534 28
27628 34531 34535 28
27629 34536 34537 28
27630 34536 34538 28
27631 34536 34539 28
27632 34536 34540 28
27633 34541 34542 28
27634 34541 34543 28
27635 34541 34544 28
27636 34541 34545 28
27637 34546 34547 28
27638 34546 34548 28
27639 34546 34549 28
27640 34546 34550 28
27641 34551 34552 28
27642 34551 34553 28
27643 34551 34554 28
27644 34551 34555 28
27645 34556 34557 28
27646 34556 34558 28
27647 34556 34559 28
27648 34556 34560 28
27649 34561 34562 28
27650 34561 34563 28
27651 34561 34564 28
27652 34561 34565 28
27653 34566 34567 28
27654 34566 34568 28
27655 34566 34569 28
27656 34566 34570 28
27657 34571 34572 28
27658 34571 34573 28
27659 34571 34574 28
27660 34571 34575 28
27661 34576 34577 28
27662 34576 34578 28
27663 34576 34579 28
27664 34576 34580 28
27665 34581 34582 28
27666 34581 34583 28
27667 34581 34584 28
27668 34581 34585 28
27669 34586 34587 28
27670 34586 34588 28
27671 34586 34589 28
27672 34586 34590 28
27673 34591 34592 28
27674 34591 34593 28
27675 34591 34594 28
27676 34591 34595 28
27677 34596 34597 28
27678 34596 34598 28
27679 34596 34599 28
27680 34596 34600 28
27681 34601 34602 28
27682 34601 34603 28
27683 34601 34604 28
27684 34601 34605 28
27685 34606 34607 28
27686 34606 34608 28
27687 34606 34609 28
27688 34606 34610 28
27689 34611 34612 28
27690 34611 34613 28
27691 34611 34614 28
27692 34611 34615 28
27693 34616 34617 28
27694 34616 34618 28
27695 34616 34619 28
27696 34616 34620 28
27697 34621 34622 28
27698 34621 34623 28
27699 34621 34624 28
27700 34621 34625 28
27701 34626 34627 28
27702 34626 34628 28
27703 34626 34629 28
27704 34626 34630 28
27705 34631 34632 28
27706 34631 34633 28
27707 34631 34634 28
27708 34631 34635 28
27709 34636 34637 28
27710 34636 34638 28
27711 34636 34639 28
27712 34636 34640 28
27713 34641 34642 28
27714 34641 34643 28
27715 34641 34644 28
27716 34641 34645 28
27717 34646 34647 28
27718 34646 34648 28
27719 34646 34649 28
27720 34646 34650 28
27721 34651 34652 28
27722 34651 34653 28
27723 34651 34654 28
27724 34651 34655 28
27725 34656 34657 28
27726 34656 34658 28
27727 34656 34659 28
27728 34656 34660 28
27729 34661 34662 28
27730 34661 34663 28
27731 34661 34664 28
27732 34661 34665 28
27733 34666 34667 28
27734 34666 34668 28
27735 34666 34669 28
27736 34666 34670 28
27737 34671 34672 28
27738 34671 34673 28
27739 34671 34674 28
27740 34671 34675 28
27741 34676 34677 28
27742 34676 34678 28
27743 34676 34679 28
27744 34676 34680 28
27745 34681 34682 28
27746 34681 34683 28
27747 34681 34684 28
27748 34681 34685 28
27749 34686 34687 28
27750 34686 34688 28
27751 34686 34689 28
27752 34686 34690 28
27753 34691 34692 28
27754 34691 34693 28
27755 34691 34694 28
27756 34691 34695 28
27757 34696 34697 28
27758 34696 34698 28
27759 34696 34699 28
27760 34696 34700 28
27761 34701 34702 28
27762 34701 34703 28
27763 34701 34704 28
27764 34701 34705 28
27765 34706 34707 28
27766 34706 34708 28
27767 34706 34709 28
27768 34706 34710 28
27769 34711 34712 28
27770 34711 34713 28
27771 34711 34714 28
27772 34711 34715 28
27773 34716 34717 28
27774 34716 34718 28
27775 34716 34719 28
27776 34716 34720 28
27777 34721 34722 28
27778 34721 34723 28
27779 34721 34724 28
27780 34721 34725 28
27781 34726 34727 28
27782 34726 34728 28
27783 34726 34729 28
27784 34726 34730 28
27785 34731 34732 28
27786 34731 34733 28
27787 34731 34734 28
27788 34731 34735 28
27789 34736 34737 28
27790 34736 34738 28
27791 34736 34739 28
27792 34736 34740 28
27793 34741 34742 28
27794 34741 34743 28
27795 34741 34744 28
27796 34741 34745 28
27797 34746 34747 28
27798 34746 34748 28
27799 34746 34749 28
27800 34746 34750 28
27801 34751 34752 28
27802 34751 34753 28
27803 34751 34754 28
27804 34751 34755 28
27805 34756 34757 28
27806 34756 34758 28
27807 34756 34759 28
27808 34756 34760 28
27809 34761 34762 28
27810 34761 34763 28
27811 34761 34764 28
27812 34761 34765 28
27813 34766 34767 28
27814 34766 34768 28
27815 34766 34769 28
27816 34766 34770 28
27817 34771 34772 28
27818 34771 34773 28
27819 34771 34774 28
27820 34771 34775 28
27821 34776 34777 28
27822 34776 34778 28
27823 34776 34779 28
27824 34776 34780 28
27825 34781 34782 28
27826 34781 34783 28
27827 34781 34784 28
27828 34781 34785 28
27829 34786 34787 28
27830 34786 34788 28
27831 34786 34789 28
27832 34786 34790 28
27833 34791 34792 28
27834 34791 34793 28
27835 34791 34794 28
27836 34791 34795 28
27837 34796 34797 28
27838 34796 34798 28
27839 34796 34799 28
27840 34796 34800 28
27841 34801 34802 28
27842 34801 34803 28
27843 34801 34804 28
27844 34801 34805 28
27845 34806 34807 28
27846 34806 34808 28
27847 34806 34809 28
27848 34806 34810 28
27849 34811 34812 28
27850 34811 34813 28
27851 34811 34814 28
27852 34811 34815 28
27853 34816 34817 28
27854 34816 34818 28
27855 34816 34819 28
27856 34816 34820 28
27857 34821 34822 28
27858 34821 34823 28
27859 34821 34824 28
27860 34821 34825 28
27861 34826 34827 28
27862 34826 34828 28
27863 34826 34829 28
27864 34826 34830 28
27865 34831 34832 28
27866 34831 34833 28
27867 34831 34834 28
27868 34831 34835 28
27869 34836 34837 28
27870 34836 34838 28
27871 34836 34839 28
27872 34836 34840 28
27873 34841 34842 28
27874 34841 34843 28
27875 34841 34844 28
27876 34841 34845 28
27877 34846 34847 28
27878 34846 34848 28
27879 34846 34849 28
27880 34846 34850 28
27881 34851 34852 28
27882 34851 34853 28
27883 34851 34854 28
27884 34851 34855 28
27885 34856 34857 28
27886 34856 34858 28
27887 34856 34859 28
27888 34856 34860 28
27889 34861 34862 28
27890 34861 34863 28
27891 34861 34864 28
27892 34861 34865 28
27893 34866 34867 28
27894 34866 34868 28
27895 34866 34869 28
27896 34866 34870 28
27897 34871 34872 28
27898 34871 34873 28
27899 34871 34874 28
27900 34871 34875 28
27901 34876 34877 28
27902 34876 34878 28
27903 34876 34879 28
27904 34876 34880 28
27905 34881 34882 28
27906 34881 34883 28
27907 34881 34884 28
27908 34881 34885 28
27909 34886 34887 28
27910 34886 34888 28
27911 34886 34889 28
27912 34886 34890 28
27913 34891 34892 28
27914 34891 34893 28
27915 34891 34894 28
27916 34891 34895 28
27917 34896 34897 28
27918 34896 34898 28
27919 34896 34899 28
27920 34896 34900 28
27921 34901 34902 28
27922 34901 34903 28
27923 34901 34904 28
27924 34901 34905 28
27925 34906 34907 28
27926 34906 34908 28
27927 34906 34909 28
27928 34906 34910 28
27929 34911 34912 28
27930 34911 34913 28
27931 34911 34914 28
27932 34911 34915 28
27933 34916 34917 28
27934 34916 34918 28
27935 34916 34919 28
27936 34916 34920 28
27937 34921 34922 28
27938 34921 34923 28
27939 34921 34924 28
27940 34921 34925 28
27941 34926 34927 28
27942 34926 34928 28
27943 34926 34929 28
27944 34926 34930 28
27945 34931 34932 28
27946 34931 34933 28
27947 34931 34934 28
27948 34931 34935 28
27949 34936 34937 28
27950 34936 34938 28
27951 34936 34939 28
27952 34936 34940 28
27953 34941 34942 28
27954 34941 34943 28
27955 34941 34944 28
27956 34941 34945 28
27957 34946 34947 28
27958 34946 34948 28
27959 34946 34949 28
27960 34946 34950 28
27961 34951 34952 28
27962 34951 34953 28
27963 34951 34954 28
27964 34951 34955 28
27965 34956 34957 28
27966 34956 34958 28
27967 34956 34959 28
27968 34956 34960 28
27969 34961 34962 28
27970 34961 34963 28
27971 34961 34964 28
27972 34961 34965 28
27973 34966 34967 28
27974 34966 34968 28
27975 34966 34969 28
27976 34966 34970 28
27977 34971 34972 28
27978 34971 34973 28
27979 34971 34974 28
27980 34971 34975 28
27981 34976 34977 28
27982 34976 34978 28
27983 34976 34979 28
27984 34976 34980 28
27985 34981 34982 28
27986 34981 34983 28
27987 34981 34984 28
27988 34981 34985 28
27989 34986 34987 28
27990 34986 34988 28
27991 34986 34989 28
27992 34986 34990 28
27993 34991 34992 28
27994 34991 34993 28
27995 34991 34994 28
27996 34991 34995 28
27997 34996 34997 28
27998 34996 34998 28
27999 34996 34999 28
28000 34996 35000 28
28001 35001 35002 28
28002 35001 35003 28
28003 35001 35004 28
28004 35001 35005 28
28005 35006 35007 28
28006 35006 35008 28
28007 35006 35009 28
28008 35006 35010 28
28009 35011 35012 28
28010 35011 35013 28
28011 35011 35014 28
28012 35011 35015 28
28013 35016 35017 28
28014 35016 35018 28
28015 35016 35019 28
28016 35016 35020 28
28017 35021 35022 28
28018 35021 35023 28
28019 35021 35024 28
28020 35021 35025 28
28021 35026 35027 28
28022 35026 35028 28
28023 35026 35029 28
28024 35026 35030 28
28025 35031 35032 28
28026 35031 35033 28
28027 35031 35034 28
28028 35031 35035 28
28029 35036 35037 28
28030 35036 35038 28
28031 35036 35039 28
28032 35036 35040 28
28033 35041 35042 28
28034 35041 35043 28
28035 35041 35044 28
28036 35041 35045 28
28037 35046 35047 28
28038 35046 35048 28
28039 35046 35049 28
28040 35046 35050 28
28041 35051 35052 28
28042 35051 35053 28
28043 35051 35054 28
28044 35051 35055 28
28045 35056 35057 28
28046 35056 35058 28
28047 35056 35059 28
28048 35056 35060 28
28049 35061 35062 28
28050 35061 35063 28
28051 35061 35064 28
28052 35061 35065 28
28053 35066 35067 28
28054 35066 35068 28
28055 35066 35069 28
28056 35066 35070 28
28057 35071 35072 28
28058 35071 35073 28
28059 35071 35074 28
28060 35071 35075 28
28061 35076 35077 28
28062 35076 35078 28
28063 35076 35079 28
28064 35076 35080 28
28065 35081 35082 28
28066 35081 35083 28
28067 35081 35084 28
28068 35081 35085 28
28069 35086 35087 28
28070 35086 35088 28
28071 35086 35089 28
28072 35086 35090 28
28073 35091 35092 28
28074 35091 35093 28
28075 35091 35094 28
28076 35091 35095 28
28077 35096 35097 28
28078 35096 35098 28
28079 35096 35099 28
28080 35096 35100 28
28081 35101 35102 28
28082 35101 35103 28
28083 35101 35104 28
28084 35101 35105 28
28085 35106 35107 28
28086 35106 35108 28
28087 35106 35109 28
28088 35106 35110 28
28089 35111 35112 28
28090 35111 35113 28
28091 35111 35114 28
28092 35111 35115 28
28093 35116 35117 28
28094 35116 35118 28
28095 35116 35119 28
28096 35116 35120 28
28097 35121 35122 28
28098 35121 35123 28
28099 35121 35124 28
28100 35121 35125 28
28101 35126 35127 28
28102 35126 35128 28
28103 35126 35129 28
28104 35126 35130 28
28105 35131 35132 28
28106 35131 35133 28
28107 35131 35134 28
28108 35131 35135 28
28109 35136 35137 28
28110 35136 35138 28
28111 35136 35139 28
28112 35136 35140 28
28113 35141 35142 28
28114 35141 35143 28
28115 35141 35144 28
28116 35141 35145 28
28117 35146 35147 28
28118 35146 35148 28
28119 35146 35149 28
28120 35146 35150 28
28121 35151 35152 28
28122 35151 35153 28
28123 35151 35154 28
28124 35151 35155 28
28125 35156 35157 28
28126 35156 35158 28
28127 35156 35159 28
28128 35156 35160 28
28129 35161 35162 28
28130 35161 35163 28
28131 35161 35164 28
28132 35161 35165 28
28133 35166 35167 28
28134 35166 35168 28
28135 35166 35169 28
28136 35166 35170 28
28137 35171 35172 28
28138 35171 35173 28
28139 35171 35174 28
28140 35171 35175 28
28141 35176 35177 28
28142 35176 35178 28
28143 35176 35179 28
28144 35176 35180 28
28145 35181 35182 28
28146 35181 35183 28
28147 35181 35184 28
28148 35181 35185 28
28149 35186 35187 28
28150 35186 35188 28
28151 35186 35189 28
28152 35186 35190 28
28153 35191 35192 28
28154 35191 35193 28
28155 35191 35194 28
28156 35191 35195 28
28157 35196 35197 28
28158 35196 35198 28
28159 35196 35199 28
28160 35196 35200 28
28161 35201 35202 28
28162 35201 35203 28
28163 35201 35204 28
28164 35201 35205 28
28165 35206 35207 28
28166 35206 35208 28
28167 35206 35209 28
28168 35206 35210 28
28169 35211 35212 28
28170 35211 35213 28
28171 35211 35214 28
28172 35211 35215 28
28173 35216 35217 28
28174 35216 35218 28
28175 35216 35219 28
28176 35216 35220 28
28177 35221 35222 28
28178 35221 35223 28
28179 35221 35224 28
28180 35221 35225 28
28181 35226 35227 28
28182 35226 35228 28
28183 35226 35229 28
28184 35226 35230 28
28185 35231 35232 28
28186 35231 35233 28
28187 35231 35234 28
28188 35231 35235 28
28189 35236 35237 28
28190 35236 35238 28
28191 35236 35239 28
28192 35236 35240 28
28193 35241 35242 28
28194 35241 35243 28
28195 35241 35244 28
28196 35241 35245 28
28197 35246 35247 28
28198 35246 35248 28
28199 35246 35249 28
28200 35246 35250 28
28201 35251 35252 28
28202 35251 35253 28
28203 35251 35254 28
28204 35251 35255 28
28205 35256 35257 28
28206 35256 35258 28
28207 35256 35259 28
28208 35256 35260 28
28209 35261 35262 28
28210 35261 35263 28
28211 35261 35264 28
28212 35261 35265 28
28213 35266 35267 28
28214 35266 35268 28
28215 35266 35269 28
28216 35266 35270 28
28217 35271 35272 28
28218 35271 35273 28
28219 35271 35274 28
28220 35271 35275 28
28221 35276 35277 28
28222 35276 35278 28
28223 35276 35279 28
28224 35276 35280 28
28225 35281 35282 28
28226 35281 35283 28
28227 35281 35284 28
28228 35281 35285 28
28229 35286 35287 28
28230 35286 35288 28
28231 35286 35289 28
28232 35286 35290 28
28233 35291 35292 28
28234 35291 35293 28
28235 35291 35294 28
28236 35291 35295 28
28237 35296 35297 28
28238 35296 35298 28
28239 35296 35299 28
28240 35296 35300 28
28241 35301 35302 28
28242 35301 35303 28
28243 35301 35304 28
28244 35301 35305 28
28245 35306 35307 28
28246 35306 35308 28
28247 35306 35309 28
28248 35306 35310 28
28249 35311 35312 28
28250 35311 35313 28
28251 35311 35314 28
28252 35311 35315 28
28253 35316 35317 28
28254 35316 35318 28
28255 35316 35319 28
28256 35316 35320 28
28257 35321 35322 28
28258 35321 35323 28
28259 35321 35324 28
28260 35321 35325 28
28261 35326 35327 28
28262 35326 35328 28
28263 35326 35329 28
28264 35326 35330 28
28265 35331 35332 28
28266 35331 35333 28
28267 35331 35334 28
28268 35331 35335 28
28269 35336 35337 28
28270 35336 35338 28
28271 35336 35339 28
28272 35336 35340 28
28273 35341 35342 28
28274 35341 35343 28
28275 35341 35344 28
28276 35341 35345 28
28277 35346 35347 28
28278 35346 35348 28
28279 35346 35349 28
28280 35346 35350 28
28281 35351 35352 28
28282 35351 35353 28
28283 35351 35354 28
28284 35351 35355 28
28285 35356 35357 28
28286 35356 35358 28
28287 35356 35359 28
28288 35356 35360 28
28289 35361 35362 28
28290 35361 35363 28
28291 35361 35364 28
28292 35361 35365 28
28293 35366 35367 28
28294 35366 35368 28
28295 35366 35369 28
28296 35366 35370 28
28297 35371 35372 28
28298 35371 35373 28
28299 35371 35374 28
28300 35371 35375 28
28301 35376 35377 28
28302 35376 35378 28
28303 35376 35379 28
28304 35376 35380 28
28305 35381 35382 28
28306 35381 35383 28
28307 35381 35384 28
28308 35381 35385 28
28309 35386 35387 28
28310 35386 35388 28
28311 35386 35389 28
28312 35386 35390 28
28313 35391 35392 28
28314 35391 35393 28
28315 35391 35394 28
28316 35391 35395 28
28317 35396 35397 28
28318 35396 35398 28
28319 35396 35399 28
28320 35396 35400 28
28321 35401 35402 28
28322 35401 35403 28
28323 35401 35404 28
28324 35401 35405 28
28325 35406 35407 28
28326 35406 35408 28
28327 35406 35409 28
28328 35406 35410 28
28329 35411 35412 28
28330 35411 35413 28
28331 35411 35414 28
28332 35411 35415 28
28333 35416 35417 28
28334 35416 35418 28
28335 35416 35419 28
28336 35416 35420 28
28337 35421 35422 28
28338 35421 35423 28
28339 35421 35424 28
28340 35421 35425 28
28341 35426 35427 28
28342 35426 35428 28
28343 35426 35429 28
28344 35426 35430 28
28345 35431 35432 28
28346 35431 35433 28
28347 35431 35434 28
28348 35431 35435 28
28349 35436 35437 28
28350 35436 35438 28
28351 35436 35439 28
28352 35436 35440 28
28353 35441 35442 28
28354 35441 35443 28
28355 35441 35444 28
28356 35441 35445 28
28357 35446 35447 28
28358 35446 35448 28
28359 35446 35449 28
28360 35446 35450 28
28361 35451 35452 28
28362 35451 35453 28
28363 35451 35454 28
28364 35451 35455 28
28365 35456 35457 28
28366 35456 35458 28
28367 35456 35459 28
28368 35456 35460 28
28369 35461 35462 28
28370 35461 35463 28
28371 35461 35464 28
28372 35461 35465 28
28373 35466 35467 28
28374 35466 35468 28
28375 35466 35469 28
28376 35466 35470 28
28377 35471 35472 28
28378 35471 35473 28
28379 35471 35474 28
28380 35471 35475 28
28381 35476 35477 28
28382 35476 35478 28
28383 35476 35479 28
28384 35476 35480 28
28385 35481 35482 28
28386 35481 35483 28
28387 35481 35484 28
28388 35481 35485 28
28389 35486 35487 28
28390 35486 35488 28
28391 35486 35489 28
28392 35486 35490 28
28393 35491 35492 28
28394 35491 35493 28
28395 35491 35494 28
28396 35491 35495 28
28397 35496 35497 28
28398 35496 35498 28
28399 35496 35499 28
28400 35496 35500 28
28401 35501 35502 28
28402 35501 35503 28
28403 35501 35504 28
28404 35501 35505 28
28405 35506 35507 28
28406 35506 35508 28
28407 35506 35509 28
28408 35506 35510 28
28409 35511 35512 28
28410 35511 35513 28
28411 35511 35514 28
28412 35511 35515 28
28413 35516 35517 28
28414 35516 35518 28
28415 35516 35519 28
28416 35516 35520 28
28417 35521 35522 28
28418 35521 35523 28
28419 35521 35524 28
28420 35521 35525 28
28421 35526 35527 28
28422 35526 35528 28
28423 35526 35529 28
28424 35526 35530 28
28425 35531 35532 28
28426 35531 35533 28
28427 35531 35534 28
28428 35531 35535 28
28429 35536 35537 28
28430 35536 35538 28
28431 35536 35539 28
28432 35536 35540 28
28433 35541 35542 28
28434 35541 35543 28
28435 35541 35544 28
28436 35541 35545 28
28437 35546 35547 28
28438 35546 35548 28
28439 35546 35549 28
28440 35546 35550 28
28441 35551 35552 28
28442 35551 35553 28
28443 35551 35554 28
28444 35551 35555 28
28445 35556 35557 28
28446 35556 35558 28
28447 35556 35559 28
28448 35556 35560 28
28449 35561 35562 28
28450 35561 35563 28
28451 35561 35564 28
28452 35561 35565 28
28453 35566 35567 28
28454 35566 35568 28
28455 35566 35569 28
28456 35566 35570 28
28457 35571 35572 28
28458 35571 35573 28
28459 35571 35574 28
28460 35571 35575 28
28461 35576 35577 28
28462 35576 35578 28
28463 35576 35579 28
28464 35576 35580 28
28465 35581 35582 28
28466 35581 35583 28
28467 35581 35584 28
28468 35581 35585 28
28469 35586 35587 28
28470 35586 35588 28
28471 35586 35589 28
28472 35586 35590 28
28473 35591 35592 28
28474 35591 35593 28
28475 35591 35594 28
28476 35591 35595 28
28477 35596 35597 28
28478 35596 35598 28
28479 35596 35599 28
28480 35596 35600 28
28481 35601 35602 28
28482 35601 35603 28
28483 35601 35604 28
28484 35601 35605 28
28485 35606 35607 28
28486 35606 35608 28
28487 35606 35609 28
28488 35606 35610 28
28489 35611 35612 28
28490 35611 35613 28
28491 35611 35614 28
28492 35611 35615 28
28493 35616 35617 28
28494 35616 35618 28
28495 35616 35619 28
28496 35616 35620 28
28497 35621 35622 28
28498 35621 35623 28
28499 35621 35624 28
28500 35621 35625 28
28501 35626 35627 28
28502 35626 35628 28
28503 35626 35629 28
28504 35626 35630 28
28505 35631 35632 28
28506 35631 35633 28
28507 35631 35634 28
28508 35631 35635 28
28509 35636 35637 28
28510 35636 35638 28
28511 35636 35639 28
28512 35636 35640 28
28513 35641 35642 28
28514 35641 35643 28
28515 35641 35644 28
28516 35641 35645 28
28517 35646 35647 28
28518 35646 35648 28
28519 35646 35649 28
28520 35646 35650 28
28521 35651 35652 28
28522 35651 35653 28
28523 35651 35654 28
28524 35651 35655 28
28525 35656 35657 28
28526 35656 35658 28
28527 35656 35659 28
28528 35656 35660 28
28529 35661 35662 28
28530 35661 35663 28
28531 35661 35664 28
28532 35661 35665 28
28533 35666 35667 28
28534 35666 35668 28
28535 35666 35669 28
28536 35666 35670 28
28537 35671 35672 28
28538 35671 35673 28
28539 35671 35674 28
28540 35671 35675 28
28541 35676 35677 28
28542 35676 35678 28
28543 35676 35679 28
28544 35676 35680 28
28545 35681 35682 28
28546 35681 35683 28
28547 35681 35684 28
28548 35681 35685 28
28549 35686 35687 28
28550 35686 35688 28
28551 35686 35689 28
28552 35686 35690 28
28553 35691 35692 28
28554 35691 35693 28
28555 35691 35694 28
28556 35691 35695 28
28557 35696 35697 28
28558 35696 35698 28
28559 35696 35699 28
28560 35696 35700 28
28561 35701 35702 28
28562 35701 35703 28
28563 35701 35704 28
28564 35701 35705 28
28565 35706 35707 28
28566 35706 35708 28
28567 35706 35709 28
28568 35706 35710 28
28569 35711 35712 28
28570 35711 35713 28
28571 35711 35714 28
28572 35711 35715 28
28573 35716 35717 28
28574 35716 35718 28
28575 35716 35719 28
28576 35716 35720 28
28577 35721 35722 28
28578 35721 35723 28
28579 35721 35724 28
28580 35721 35725 28
28581 35726 35727 28
28582 35726 35728 28
28583 35726 35729 28
28584 35726 35730 28
28585 35731 35732 28
28586 35731 35733 28
28587 35731 35734 28
28588 35731 35735 28
28589 35736 35737 28
28590 35736 35738 28
28591 35736 35739 28
28592 35736 35740 28
28593 35741 35742 28
28594 35741 35743 28
28595 35741 35744 28
28596 35741 35745 28
28597 35746 35747 28
28598 35746 35748 28
28599 35746 35749 28
28600 35746 35750 28
28601 35751 35752 28
28602 35751 35753 28
28603 35751 35754 28
28604 35751 35755 28
28605 35756 35757 28
28606 35756 35758 28
28607 35756 35759 28
28608 35756 35760 28
28609 35761 35762 28
28610 35761 35763 28
28611 35761 35764 28
28612 35761 35765 28
28613 35766 35767 28
28614 35766 35768 28
28615 35766 35769 28
28616 35766 35770 28
28617 35771 35772 28
28618 35771 35773 28
28619 35771 35774 28
28620 35771 35775 28
28621 35776 35777 28
28622 35776 35778 28
28623 35776 35779 28
28624 35776 35780 28
28625 35781 35782 28
28626 35781 35783 28
28627 35781 35784 28
28628 35781 35785 28
28629 35786 35787 28
28630 35786 35788 28
28631 35786 35789 28
28632 35786 35790 28
28633 35791 35792 28
28634 35791 35793 28
28635 35791 35794 28
28636 35791 35795 28
28637 35796 35797 28
28638 35796 35798 28
28639 35796 35799 28
28640 35796 35800 28
28641 35801 35802 28
28642 35801 35803 28
28643 35801 35804 28
28644 35801 35805 28
28645 35806 35807 28
28646 35806 35808 28
28647 35806 35809 28
28648 35806 35810 28
28649 35811 35812 28
28650 35811 35813 28
28651 35811 35814 28
28652 35811 35815 28
28653 35816 35817 28
28654 35816 35818 28
28655 35816 35819 28
28656 35816 35820 28
28657 35821 35822 28
28658 35821 35823 28
28659 35821 35824 28
28660 35821 35825 28
28661 35826 35827 28
28662 35826 35828 28
28663 35826 35829 28
28664 35826 35830 28
28665 35831 35832 28
28666 35831 35833 28
28667 35831 35834 28
28668 35831 35835 28
28669 35836 35837 28
28670 35836 35838 28
28671 35836 35839 28
28672 35836 35840 28
28673 35841 35842 28
28674 35841 35843 28
28675 35841 35844 28
28676 35841 35845 28
28677 35846 35847 28
28678 35846 35848 28
28679 35846 35849 28
28680 35846 35850 28
28681 35851 35852 28
28682 35851 35853 28
28683 35851 35854 28
28684 35851 35855 28
28685 35856 35857 28
28686 35856 35858 28
28687 35856 35859 28
28688 35856 35860 28
28689 35861 35862 28
28690 35861 35863 28
28691 35861 35864 28
28692 35861 35865 28
28693 35866 35867 28
28694 35866 35868 28
28695 35866 35869 28
28696 35866 35870 28
28697 35871 35872 28
28698 35871 35873 28
28699 35871 35874 28
28700 35871 35875 28
28701 35876 35877 28
28702 35876 35878 28
28703 35876 35879 28
28704 35876 35880 28
28705 35881 35882 28
28706 35881 35883 28
28707 35881 35884 28
28708 35881 35885 28
28709 35886 35887 28
28710 35886 35888 28
28711 35886 35889 28
28712 35886 35890 28
28713 35891 35892 28
28714 35891 35893 28
28715 35891 35894 28
28716 35891 35895 28
28717 35896 35897 28
28718 35896 35898 28
28719 35896 35899 28
28720 35896 35900 28
28721 35901 35902 28
28722 35901 35903 28
28723 35901 35904 28
28724 35901 35905 28
28725 35906 35907 28
28726 35906 35908 28
28727 35906 35909 28
28728 35906 35910 28
28729 35911 35912 28
28730 35911 35913 28
28731 35911 35914 28
28732 35911 35915 28
28733 35916 35917 28
28734 35916 35918 28
28735 35916 35919 28
28736 35916 35920 28
28737 35921 35922 28
28738 35921 35923 28
28739 35921 35924 28
28740 35921 35925 28
28741 35926 35927 28
28742 35926 35928 28
28743 35926 35929 28
28744 35926 35930 28
28745 35931 35932 28
28746 35931 35933 28
28747 35931 35934 28
28748 35931 35935 28
28749 35936 35937 28
28750 35936 35938 28
28751 35936 35939 28
28752 35936 35940 28
28753 35941 35942 28
28754 35941 35943 28
28755 35941 35944 28
28756 35941 35945 28
28757 35946 35947 28
28758 35946 35948 28
28759 35946 35949 28
28760 35946 35950 28
28761 35951 35952 28
28762 35951 35953 28
28763 35951 35954 28
28764 35951 35955 28
28765 35956 35957 28
28766 35956 35958 28
28767 35956 35959 28
28768 35956 35960 28
28769 35961 35962 28
28770 35961 35963 28
28771 35961 35964 28
28772 35961 35965 28
28773 35966 35967 28
28774 35966 35968 28
28775 35966 35969 28
28776 35966 35970 28
28777 35971 35972 28
28778 35971 35973 28
28779 35971 35974 28
28780 35971 35975 28
28781 35976 35977 28
28782 35976 35978 28
28783 35976 35979 28
28784 35976 35980 28
28785 35981 35982 28
28786 35981 35983 28
28787 35981 35984 28
28788 35981 35985 28
28789 35986 35987 28
28790 35986 35988 28
28791 35986 35989 28
28792 35986 35990 28
28793 35991 35992 28
28794 35991 35993 28
28795 35991 35994 28
28796 35991 35995 28
28797 35996 35997 28
28798 35996 35998 28
28799 35996 35999 28
28800 35996 36000 28
28801 36001 36002 28
28802 36001 36003 28
28803 36001 36004 28
28804 36001 36005 28
28805 36006 36007 28
28806 36006 36008 28
28807 36006 36009 28
28808 36006 36010 28
28809 36011 36012 28
28810 36011 36013 28
28811 36011 36014 28
28812 36011 36015 28
28813 36016 36017 28
28814 36016 36018 28
28815 36016 36019 28
28816 36016 36020 28
28817 36021 36022 28
28818 36021 36023 28
28819 36021 36024 28
28820 36021 36025 28
28821 36026 36027 28
28822 36026 36028 28
28823 36026 36029 28
28824 36026 36030 28
28825 36031 36032 28
28826 36031 36033 28
28827 36031 36034 28
28828 36031 36035 28
28829 36036 36037 28
28830 36036 36038 28
28831 36036 36039 28
28832 36036 36040 28
28833 36041 36042 28
28834 36041 36043 28
28835 36041 36044 28
28836 36041 36045 28
28837 36046 36047 28
28838 36046 36048 28
28839 36046 36049 28
28840 36046 36050 28
28841 36051 36052 28
28842 36051 36053 28
28843 36051 36054 28
28844 36051 36055 28
28845 36056 36057 28
28846 36056 36058 28
28847 36056 36059 28
28848 36056 36060 28
28849 36061 36062 28
28850 36061 36063 28
28851 36061 36064 28
28852 36061 36065 28
28853 36066 36067 28
28854 36066 36068 28
28855 36066 36069 28
28856 36066 36070 28
28857 36071 36072 28
28858 36071 36073 28
28859 36071 36074 28
28860 36071 36075 28
28861 36076 36077 28
28862 36076 36078 28
28863 36076 36079 28
28864 36076 36080 28
28865 36081 36082 28
28866 36081 36083 28
28867 36081 36084 28
28868 36081 36085 28
28869 36086 36087 28
28870 36086 36088 28
28871 36086 36089 28
28872 36086 36090 28
28873 36091 36092 28
28874 36091 36093 28
28875 36091 36094 28
28876 36091 36095 28
28877 36096 36097 28
28878 36096 36098 28
28879 36096 36099 28
28880 36096 36100 28
28881 36101 36102 28
28882 36101 36103 28
28883 36101 36104 28
28884 36101 36105 28
28885 36106 36107 28
28886 36106 36108 28
28887 36106 36109 28
28888 36106 36110 28
28889 36111 36112 28
28890 36111 36113 28
28891 36111 36114 28
28892 36111 36115 28
28893 36116 36117 28
28894 36116 36118 28
28895 36116 36119 28
28896 36116 36120 28
28897 36121 36122 28
28898 36121 36123 28
28899 36121 36124 28
28900 36121 36125 28
28901 36126 36127 28
28902 36126 36128 28
28903 36126 36129 28
28904 36126 36130 28
28905 36131 36132 28
28906 36131 36133 28
28907 36131 36134 28
28908 36131 36135 28
28909 36136 36137 28
28910 36136 36138 28
28911 36136 36139 28
28912 36136 36140 28
28913 36141 36142 28
28914 36141 36143 28
28915 36141 36144 28
28916 36141 36145 28
28917 36146 36147 28
28918 36146 36148 28
28919 36146 36149 28
28920 36146 36150 28
28921 36151 36152 28
28922 36151 36153 28
28923 36151 36154 28
28924 36151 36155 28
28925 36156 36157 28
28926 36156 36158 28
28927 36156 36159 28
28928 36156 36160 28
28929 36161 36162 28
28930 36161 36163 28
28931 36161 36164 28
28932 36161 36165 28
28933 36166 36167 28
28934 36166 36168 28
28935 36166 36169 28
28936 36166 36170 28
28937 36171 36172 28
28938 36171 36173 28
28939 36171 36174 28
28940 36171 36175 28
28941 36176 36177 28
28942 36176 36178 28
28943 36176 36179 28
28944 36176 36180 28
28945 36181 36182 28
28946 36181 36183 28
28947 36181 36184 28
28948 36181 36185 28
28949 36186 36187 28
28950 36186 36188 28
28951 36186 36189 28
28952 36186 36190 28
28953 36191 36192 28
28954 36191 36193 28
28955 36191 36194 28
28956 36191 36195 28
28957 36196 36197 28
28958 36196 36198 28
28959 36196 36199 28
28960 36196 36200 28
28961 36201 36202 28
28962 36201 36203 28
28963 36201 36204 28
28964 36201 36205 28
28965 36206 36207 28
28966 36206 36208 28
28967 36206 36209 28
28968 36206 36210 28
28969 36211 36212 28
28970 36211 36213 28
28971 36211 36214 28
28972 36211 36215 28
28973 36216 36217 28
28974 36216 36218 28
28975 36216 36219 28
28976 36216 36220 28
28977 36221 36222 28
28978 36221 36223 28
28979 36221 36224 28
28980 36221 36225 28
28981 36226 36227 28
28982 36226 36228 28
28983 36226 36229 28
28984 36226 36230 28
28985 36231 36232 28
28986 36231 36233 28
28987 36231 36234 28
28988 36231 36235 28
28989 36236 36237 28
28990 36236 36238 28
28991 36236 36239 28
28992 36236 36240 28
28993 36241 36242 28
28994 36241 36243 28
28995 36241 36244 28
28996 36241 36245 28
28997 36246 36247 28
28998 36246 36248 28
28999 36246 36249 28
29000 36246 36250 28
29001 36251 36252 28
29002 36251 36253 28
29003 36251 36254 28
29004 36251 36255 28
29005 36256 36257 28
29006 36256 36258 28
29007 36256 36259 28
29008 36256 36260 28
29009 36261 36262 28
29010 36261 36263 28
29011 36261 36264 28
29012 36261 36265 28
29013 36266 36267 28
29014 36266 36268 28
29015 36266 36269 28
29016 36266 36270 28
29017 36271 36272 28
29018 36271 36273 28
29019 36271 36274 28
29020 36271 36275 28
29021 36276 36277 28
29022 36276 36278 28
29023 36276 36279 28
29024 36276 36280 28
29025 36281 36282 28
29026 36281 36283 28
29027 36281 36284 28
29028 36281 36285 28
29029 36286 36287 28
29030 36286 36288 28
29031 36286 36289 28
29032 36286 36290 28
29033 36291 36292 28
29034 36291 36293 28
29035 36291 36294 28
29036 36291 36295 28
29037 36296 36297 28
29038 36296 36298 28
29039 36296 36299 28
29040 36296 36300 28
29041 36301 36302 28
29042 36301 36303 28
29043 36301 36304 28
29044 36301 36305 28
29045 36306 36307 28
29046 36306 36308 28
29047 36306 36309 28
29048 36306 36310 28
29049 36311 36312 28
29050 36311 36313 28
29051 36311 36314 28
29052 36311 36315 28
29053 36316 36317 28
29054 36316 36318 28
29055 36316 36319 28
29056 36316 36320 28
29057 36321 36322 28
29058 36321 36323 28
29059 36321 36324 28
29060 36321 36325 28
29061 36326 36327 28
29062 36326 36328 28
29063 36326 36329 28
29064 36326 36330 28
29065 36331 36332 28
29066 36331 36333 28
29067 36331 36334 28
29068 36331 36335 28
29069 36336 36337 28
29070 36336 36338 28
29071 36336 36339 28
29072 36336 36340 28
29073 36341 36342 28
29074 36341 36343 28
29075 36341 36344 28
29076 36341 36345 28
29077 36346 36347 28
29078 36346 36348 28
29079 36346 36349 28
29080 36346 36350 28
29081 36351 36352 28
29082 36351 36353 28
29083 36351 36354 28
29084 36351 36355 28
29085 36356 36357 28
29086 36356 36358 28
29087 36356 36359 28
29088 36356 36360 28
29089 36361 36362 28
29090 36361 36363 28
29091 36361 36364 28
29092 36361 36365 28
29093 36366 36367 28
29094 36366 36368 28
29095 36366 36369 28
29096 36366 36370 28
29097 36371 36372 28
29098 36371 36373 28
29099 36371 36374 28
29100 36371 36375 28
29101 36376 36377 28
29102 36376 36378 28
29103 36376 36379 28
29104 36376 36380 28
29105 36381 36382 28
29106 36381 36383 28
29107 36381 36384 28
29108 36381 36385 28
29109 36386 36387 28
29110 36386 36388 28
29111 36386 36389 28
29112 36386 36390 28
29113 36391 36392 28
29114 36391 36393 28
29115 36391 36394 28
29116 36391 36395 28
29117 36396 36397 28
29118 36396 36398 28
29119 36396 36399 28
29120 36396 36400 28
29121 36401 36402 28
29122 36401 36403 28
29123 36401 36404 28
29124 36401 36405 28
29125 36406 36407 28
29126 36406 36408 28
29127 36406 36409 28
29128 36406 36410 28
29129 36411 36412 28
29130 36411 36413 28
29131 36411 36414 28
29132 36411 36415 28
29133 36416 36417 28
29134 36416 36418 28
29135 36416 36419 28
29136 36416 36420 28
29137 36421 36422 28
29138 36421 36423 28
29139 36421 36424 28
29140 36421 36425 28
29141 36426 36427 28
29142 36426 36428 28
29143 36426 36429 28
29144 36426 36430 28
29145 36431 36432 28
29146 36431 36433 28
29147 36431 36434 28
29148 36431 36435 28
29149 36436 36437 28
29150 36436 36438 28
29151 36436 36439 28
29152 36436 36440 28
29153 36441 36442 28
29154 36441 36443 28
29155 36441 36444 28
29156 36441 36445 28
29157 36446 36447 28
29158 36446 36448 28
29159 36446 36449 28
29160 36446 36450 28
29161 36451 36452 28
29162 36451 36453 28
29163 36451 36454 28
29164 36451 36455 28
29165 36456 36457 28
29166 36456 36458 28
29167 36456 36459 28
29168 36456 36460 28
29169 36461 36462 28
29170 36461 36463 28
29171 36461 36464 28
29172 36461 36465 28
29173 36466 36467 28
29174 36466 36468 28
29175 36466 36469 28
29176 36466 36470 28
29177 36471 36472 28
29178 36471 36473 28
29179 36471 36474 28
29180 36471 36475 28
29181 36476 36477 28
29182 36476 36478 28
29183 36476 36479 28
29184 36476 36480 28
29185 36481 36482 28
29186 36481 36483 28
29187 36481 36484 28
29188 36481 36485 28
29189 36486 36487 28
29190 36486 36488 28
29191 36486 36489 28
29192 36486 36490 28
29193 36491 36492 28
29194 36491 36493 28
29195 36491 36494 28
29196 36491 36495 28
29197 36496 36497 28
29198 36496 36498 28
29199 36496 36499 28
29200 36496 36500 28
29201 36501 36502 28
29202 36501 36503 28
29203 36501 36504 28
29204 36501 36505 28
29205 36506 36507 28
29206 36506 36508 28
29207 36506 36509 28
29208 36506 36510 28
29209 36511 36512 28
29210 36511 36513 28
29211 36511 36514 28
29212 36511 36515 28
29213 36516 36517 28
29214 36516 36518 28
29215 36516 36519 28
29216 36516 36520 28
29217 36521 36522 28
29218 36521 36523 28
29219 36521 36524 28
29220 36521 36525 28
29221 36526 36527 28
29222 36526 36528 28
29223 36526 36529 28
29224 36526 36530 28
29225 36531 36532 28
29226 36531 36533 28
29227 36531 36534 28
29228 36531 36535 28
29229 36536 36537 28
29230 36536 36538 28
29231 36536 36539 28
29232 36536 36540 28
29233 36541 36542 28
29234 36541 36543 28
29235 36541 36544 28
29236 36541 36545 28
29237 36546 36547 28
29238 36546 36548 28
29239 36546 36549 28
29240 36546 36550 28
29241 36551 36552 28
29242 36551 36553 28
29243 36551 36554 28
29244 36551 36555 28
29245 36556 36557 28
29246 36556 36558 28
29247 36556 36559 28
29248 36556 36560 28
29249 36561 36562 28
29250 36561 36563 28
29251 36561 36564 28
29252 36561 36565 28
29253 36566 36567 28
29254 36566 36568 28
29255 36566 36569 28
29256 36566 36570 28
29257 36571 36572 28
29258 36571 36573 28
29259 36571 36574 28
29260 36571 36575 28
29261 36576 36577 28
29262 36576 36578 28
29263 36576 36579 28
29264 36576 36580 28
29265 36581 36582 28
29266 36581 36583 28
29267 36581 36584 28
29268 36581 36585 28
29269 36586 36587 28
29270 36586 36588 28
29271 36586 36589 28
29272 36586 36590 28
29273 36591 36592 28
29274 36591 36593 28
29275 36591 36594 28
29276 36591 36595 28
29277 36596 36597 28
29278 36596 36598 28
29279 36596 36599 28
29280 36596 36600 28
29281 36601 36602 28
29282 36601 36603 28
29283 36601 36604 28
29284 36601 36605 28
29285 36606 36607 28
29286 36606 36608 28
29287 36606 36609 28
29288 36606 36610 28
29289 36611 36612 28
29290 36611 36613 28
29291 36611 36614 28
29292 36611 36615 28
29293 36616 36617 28
29294 36616 36618 28
29295 36616 36619 28
29296 36616 36620 28
29297 36621 36622 28
29298 36621 36623 28
29299 36621 36624 28
29300 36621 36625 28
29301 36626 36627 28
29302 36626 36628 28
29303 36626 36629 28
29304 36626 36630 28
29305 36631 36632 28
29306 36631 36633 28
29307 36631 36634 28
29308 36631 36635 28
29309 36636 36637 28
29310 36636 36638 28
29311 36636 36639 28
29312 36636 36640 28
29313 36641 36642 28
29314 36641 36643 28
29315 36641 36644 28
29316 36641 36645 28
29317 36646 36647 28
29318 36646 36648 28
29319 36646 36649 28
29320 36646 36650 28
29321 36651 36652 28
29322 36651 36653 28
29323 36651 36654 28
29324 36651 36655 28
29325 36656 36657 28
29326 36656 36658 28
29327 36656 36659 28
29328 36656 36660 28
29329 36661 36662 28
29330 36661 36663 28
29331 36661 36664 28
29332 36661 36665 28
29333 36666 36667 28
29334 36666 36668 28
29335 36666 36669 28
29336 36666 36670 28
29337 36671 36672 28
29338 36671 36673 28
29339 36671 36674 28
29340 36671 36675 28
29341 36676 36677 28
29342 36676 36678 28
29343 36676 36679 28
29344 36676 36680 28
29345 36681 36682 28
29346 36681 36683 28
29347 36681 36684 28
29348 36681 36685 28
29349 36686 36687 28
29350 36686 36688 28
29351 36686 36689 28
29352 36686 36690 28
29353 36691 36692 28
29354 36691 36693 28
29355 36691 36694 28
29356 36691 36695 28
29357 36696 36697 28
29358 36696 36698 28
29359 36696 36699 28
29360 36696 36700 28
29361 36701 36702 28
29362 36701 36703 28
29363 36701 36704 28
29364 36701 36705 28
29365 36706 36707 28
29366 36706 36708 28
29367 36706 36709 28
29368 36706 36710 28
29369 36711 36712 28
29370 36711 36713 28
29371 36711 36714 28
29372 36711 36715 28
29373 36716 36717 28
29374 36716 36718 28
29375 36716 36719 28
29376 36716 36720 28
29377 36721 36722 28
29378 36721 36723 28
29379 36721 36724 28
29380 36721 36725 28
29381 36726 36727 28
29382 36726 36728 28
29383 36726 36729 28
29384 36726 36730 28
29385 36731 36732 28
29386 36731 36733 28
29387 36731 36734 28
29388 36731 36735 28
29389 36736 36737 28
29390 36736 36738 28
29391 36736 36739 28
29392 36736 36740 28
29393 36741 36742 28
29394 36741 36743 28
29395 36741 36744 28
29396 36741 36745 28
29397 36746 36747 28
29398 36746 36748 28
29399 36746 36749 28
29400 36746 36750 28
29401 36751 36752 28
29402 36751 36753 28
29403 36751 36754 28
29404 36751 36755 28
29405 36756 36757 28
29406 36756 36758 28
29407 36756 36759 28
29408 36756 36760 28
29409 36761 36762 28
29410 36761 36763 28
29411 36761 36764 28
29412 36761 36765 28
29413 36766 36767 28
29414 36766 36768 28
29415 36766 36769 28
29416 36766 36770 28
29417 36771 36772 28
29418 36771 36773 28
29419 36771 36774 28
29420 36771 36775 28
29421 36776 36777 28
29422 36776 36778 28
29423 36776 36779 28
29424 36776 36780 28
29425 36781 36782 28
29426 36781 36783 28
29427 36781 36784 28
29428 36781 36785 28
29429 36786 36787 28
29430 36786 36788 28
29431 36786 36789 28
29432 36786 36790 28
29433 36791 36792 28
29434 36791 36793 28
29435 36791 36794 28
29436 36791 36795 28
29437 36796 36797 28
29438 36796 36798 28
29439 36796 36799 28
29440 36796 36800 28
29441 36801 36802 28
29442 36801 36803 28
29443 36801 36804 28
29444 36801 36805 28
29445 36806 36807 28
29446 36806 36808 28
29447 36806 36809 28
29448 36806 36810 28
29449 36811 36812 28
29450 36811 36813 28
29451 36811 36814 28
29452 36811 36815 28
29453 36816 36817 28
29454 36816 36818 28
29455 36816 36819 28
29456 36816 36820 28
29457 36821 36822 28
29458 36821 36823 28
29459 36821 36824 28
29460 36821 36825 28
29461 36826 36827 28
29462 36826 36828 28
29463 36826 36829 28
29464 36826 36830 28
29465 36831 36832 28
29466 36831 36833 28
29467 36831 36834 28
29468 36831 36835 28
29469 36836 36837 28
29470 36836 36838 28
29471 36836 36839 28
29472 36836 36840 28
29473 36841 36842 28
29474 36841 36843 28
29475 36841 36844 28
29476 36841 36845 28
29477 36846 36847 28
29478 36846 36848 28
29479 36846 36849 28
29480 36846 36850 28
29481 36851 36852 28
29482 36851 36853 28
29483 36851 36854 28
29484 36851 36855 28
29485 36856 36857 28
29486 36856 36858 28
29487 36856 36859 28
29488 36856 36860 28
29489 36861 36862 28
29490 36861 36863 28
29491 36861 36864 28
29492 36861 36865 28
29493 36866 36867 28
29494 36866 36868 28
29495 36866 36869 28
29496 36866 36870 28
29497 36871 36872 28
29498 36871 36873 28
29499 36871 36874 28
29500 36871 36875 28
29501 36876 36877 28
29502 36876 36878 28
29503 36876 36879 28
29504 36876 36880 28
29505 36881 36882 28
29506 36881 36883 28
29507 36881 36884 28
29508 36881 36885 28
29509 36886 36887 28
29510 36886 36888 28
29511 36886 36889 28
29512 36886 36890 28
29513 36891 36892 28
29514 36891 36893 28
29515 36891 36894 28
29516 36891 36895 28
29517 36896 36897 28
29518 36896 36898 28
29519 36896 36899 28
29520 36896 36900 28
29521 36901 36902 28
29522 36901 36903 28
29523 36901 36904 28
29524 36901 36905 28
29525 36906 36907 28
29526 36906 36908 28
29527 36906 36909 28
29528 36906 36910 28
29529 36911 36912 28
29530 36911 36913 28
29531 36911 36914 28
29532 36911 36915 28
29533 36916 36917 28
29534 36916 36918 28
29535 36916 36919 28
29536 36916 36920 28
29537 36921 36922 28
29538 36921 36923 28
29539 36921 36924 28
29540 36921 36925 28
29541 36926 36927 28
29542 36926 36928 28
29543 36926 36929 28
29544 36926 36930 28
29545 36931 36932 28
29546 36931 36933 28
29547 36931 36934 28
29548 36931 36935 28
29549 36936 36937 28
29550 36936 36938 28
29551 36936 36939 28
29552 36936 36940 28
29553 36941 36942 28
29554 36941 36943 28
29555 36941 36944 28
29556 36941 36945 28
29557 36946 36947 28
29558 36946 36948 28
29559 36946 36949 28
29560 36946 36950 28
29561 36951 36952 28
29562 36951 36953 28
29563 36951 36954 28
29564 36951 36955 28
29565 36956 36957 28
29566 36956 36958 28
29567 36956 36959 28
29568 36956 36960 28
29569 36961 36962 28
29570 36961 36963 28
29571 36961 36964 28
29572 36961 36965 28
29573 36966 36967 28
29574 36966 36968 28
29575 36966 36969 28
29576 36966 36970 28
29577 36971 36972 28
29578 36971 36973 28
29579 36971 36974 28
29580 36971 36975 28
29581 36976 36977 28
29582 36976 36978 28
29583 36976 36979 28
29584 36976 36980 28
29585 36981 36982 28
29586 36981 36983 28
29587 36981 36984 28
29588 36981 36985 28
29589 36986 36987 28
29590 36986 36988 28
29591 36986 36989 28
29592 36986 36990 28
29593 36991 36992 28
29594 36991 36993 28
29595 36991 36994 28
29596 36991 36995 28
29597 36996 36997 28
29598 36996 36998 28
29599 36996 36999 28
29600 36996 37000 28
29601 37001 37002 28
29602 37001 37003 28
29603 37001 37004 28
29604 37001 37005 28
29605 37006 37007 28
29606 37006 37008 28
29607 37006 37009 28
29608 37006 37010 28
29609 37011 37012 28
29610 37011 37013 28
29611 37011 37014 28
29612 37011 37015 28
29613 37016 37017 28
29614 37016 37018 28
29615 37016 37019 28
29616 37016 37020 28
29617 37021 37022 28
29618 37021 37023 28
29619 37021 37024 28
29620 37021 37025 28
29621 37026 37027 28
29622 37026 37028 28
29623 37026 37029 28
29624 37026 37030 28
29625 37031 37032 28
29626 37031 37033 28
29627 37031 37034 28
29628 37031 37035 28
29629 37036 37037 28
29630 37036 37038 28
29631 37036 37039 28
29632 37036 37040 28
29633 37041 37042 28
29634 37041 37043 28
29635 37041 37044 28
29636 37041 37045 28
29637 37046 37047 28
29638 37046 37048 28
29639 37046 37049 28
29640 37046 37050 28
29641 37051 37052 28
29642 37051 37053 28
29643 37051 37054 28
29644 37051 37055 28
29645 37056 37057 28
29646 37056 37058 28
29647 37056 37059 28
29648 37056 37060 28
29649 37061 37062 28
29650 37061 37063 28
29651 37061 37064 28
29652 37061 37065 28
29653 37066 37067 28
29654 37066 37068 28
29655 37066 37069 28
29656 37066 37070 28
29657 37071 37072 28
29658 37071 37073 28
29659 37071 37074 28
29660 37071 37075 28
29661 37076 37077 28
29662 37076 37078 28
29663 37076 37079 28
29664 37076 37080 28
29665 37081 37082 28
29666 37081 37083 28
29667 37081 37084 28
29668 37081 37085 28
29669 37086 37087 28
29670 37086 37088 28
29671 37086 37089 28
29672 37086 37090 28
29673 37091 37092 28
29674 37091 37093 28
29675 37091 37094 28
29676 37091 37095 28
29677 37096 37097 28
29678 37096 37098 28
29679 37096 37099 28
29680 37096 37100 28
29681 37101 37102 28
29682 37101 37103 28
29683 37101 37104 28
29684 37101 37105 28
29685 37106 37107 28
29686 37106 37108 28
29687 37106 37109 28
29688 37106 37110 28
29689 37111 37112 28
29690 37111 37113 28
29691 37111 37114 28
29692 37111 37115 28
29693 37116 37117 28
29694 37116 37118 28
29695 37116 37119 28
29696 37116 37120 28
29697 37121 37122 28
29698 37121 37123 28
29699 37121 37124 28
29700 37121 37125 28
29701 37126 37127 28
29702 37126 37128 28
29703 37126 37129 28
29704 37126 37130 28
29705 37131 37132 28
29706 37131 37133 28
29707 37131 37134 28
29708 37131 37135 28
29709 37136 37137 28
29710 37136 37138 28
29711 37136 37139 28
29712 37136 37140 28
29713 37141 37142 28
29714 37141 37143 28
29715 37141 37144 28
29716 37141 37145 28
29717 37146 37147 28
29718 37146 37148 28
29719 37146 37149 28
29720 37146 37150 28
29721 37151 37152 28
29722 37151 37153 28
29723 37151 37154 28
29724 37151 37155 28
29725 37156 37157 28
29726 37156 37158 28
29727 37156 37159 28
29728 37156 37160 28
29729 37161 37162 28
29730 37161 37163 28
29731 37161 37164 28
29732 37161 37165 28
29733 37166 37167 28
29734 37166 37168 28
29735 37166 37169 28
29736 37166 37170 28
29737 37171 37172 28
29738 37171 37173 28
29739 37171 37174 28
29740 37171 37175 28
29741 37176 37177 28
29742 37176 37178 28
29743 37176 37179 28
29744 37176 37180 28
29745 37181 37182 28
29746 37181 37183 28
29747 37181 37184 28
29748 37181 37185 28
29749 37186 37187 28
29750 37186 37188 28
29751 37186 37189 28
29752 37186 37190 28
29753 37191 37192 28
29754 37191 37193 28
29755 37191 37194 28
29756 37191 37195 28
29757 37196 37197 28
29758 37196 37198 28
29759 37196 37199 28
29760 37196 37200 28
29761 37201 37202 28
29762 37201 37203 28
29763 37201 37204 28
29764 37201 37205 28
29765 37206 37207 28
29766 37206 37208 28
29767 37206 37209 28
29768 37206 37210 28
29769 37211 37212 28
29770 37211 37213 28
29771 37211 37214 28
29772 37211 37215 28
29773 37216 37217 28
29774 37216 37218 28
29775 37216 37219 28
29776 37216 37220 28
29777 37221 37222 28
29778 37221 37223 28
29779 37221 37224 28
29780 37221 37225 28
29781 37226 37227 28
29782 37226 37228 28
29783 37226 37229 28
29784 37226 37230 28
29785 37231 37232 28
29786 37231 37233 28
29787 37231 37234 28
29788 37231 37235 28
29789 37236 37237 28
29790 37236 37238 28
29791 37236 37239 28
29792 37236 37240 28
29793 37241 37242 28
29794 37241 37243 28
29795 37241 37244 28
29796 37241 37245 28
29797 37246 37247 28
29798 37246 37248 28
29799 37246 37249 28
29800 37246 37250 28
29801 37251 37252 28
29802 37251 37253 28
29803 37251 37254 28
29804 37251 37255 28
29805 37256 37257 28
29806 37256 37258 28
29807 37256 37259 28
29808 37256 37260 28
29809 37261 37262 28
29810 37261 37263 28
29811 37261 37264 28
29812 37261 37265 28
29813 37266 37267 28
29814 37266 37268 28
29815 37266 37269 28
29816 37266 37270 28
29817 37271 37272 28
29818 37271 37273 28
29819 37271 37274 28
29820 37271 37275 28
29821 37276 37277 28
29822 37276 37278 28
29823 37276 37279 28
29824 37276 37280 28
29825 37281 37282 28
29826 37281 37283 28
29827 37281 37284 28
29828 37281 37285 28
29829 37286 37287 28
29830 37286 37288 28
29831 37286 37289 28
29832 37286 37290 28
29833 37291 37292 28
29834 37291 37293 28
29835 37291 37294 28
29836 37291 37295 28
29837 37296 37297 28
29838 37296 37298 28
29839 37296 37299 28
29840 37296 37300 28
29841 37301 37302 28
29842 37301 37303 28
29843 37301 37304 28
29844 37301 37305 28
29845 37306 37307 28
29846 37306 37308 28
29847 37306 37309 28
29848 37306 37310 28
29849 37311 37312 28
29850 37311 37313 28
29851 37311 37314 28
29852 37311 37315 28
29853 37316 37317 28
29854 37316 37318 28
29855 37316 37319 28
29856 37316 37320 28
29857 37321 37322 28
29858 37321 37323 28
29859 37321 37324 28
29860 37321 37325 28
29861 37326 37327 28
29862 37326 37328 28
29863 37326 37329 28
29864 37326 37330 28
29865 37331 37332 28
29866 37331 37333 28
29867 37331 37334 28
29868 37331 37335 28
29869 37336 37337 28
29870 37336 37338 28
29871 37336 37339 28
29872 37336 37340 28
29873 37341 37342 28
29874 37341 37343 28
29875 37341 37344 28
29876 37341 37345 28
29877 37346 37347 28
29878 37346 37348 28
29879 37346 37349 28
29880 37346 37350 28
29881 37351 37352 28
29882 37351 37353 28
29883 37351 37354 28
29884 37351 37355 28
29885 37356 37357 28
29886 37356 37358 28
29887 37356 37359 28
29888 37356 37360 28
29889 37361 37362 28
29890 37361 37363 28
29891 37361 37364 28
29892 37361 37365 28
29893 37366 37367 28
29894 37366 37368 28
29895 37366 37369 28
29896 37366 37370 28
29897 37371 37372 28
29898 37371 37373 28
29899 37371 37374 28
29900 37371 37375 28
29901 37376 37377 28
29902 37376 37378 28
29903 37376 37379 28
29904 37376 37380 28
29905 37381 37382 28
29906 37381 37383 28
29907 37381 37384 28
29908 37381 37385 28
29909 37386 37387 28
29910 37386 37388 28
29911 37386 37389 28
29912 37386 37390 28
29913 37391 37392 28
29914 37391 37393 28
29915 37391 37394 28
29916 37391 37395 28
29917 37396 37397 28
29918 37396 37398 28
29919 37396 37399 28
29920 37396 37400 28
29921 37401 37402 28
29922 37401 37403 28
29923 37401 37404 28
29924 37401 37405 28
29925 37406 37407 28
29926 37406 37408 28
29927 37406 37409 28
29928 37406 37410 28
29929 37411 37412 28
29930 37411 37413 28
29931 37411 37414 28
29932 37411 37415 28
29933 37416 37417 28
29934 37416 37418 28
29935 37416 37419 28
29936 37416 37420 28
29937 37421 37422 28
29938 37421 37423 28
29939 37421 37424 28
29940 37421 37425 28
29941 37426 37427 28
29942 37426 37428 28
29943 37426 37429 28
29944 37426 37430 28
29945 37431 37432 28
29946 37431 37433 28
29947 37431 37434 28
29948 37431 37435 28
29949 37436 37437 28
29950 37436 37438 28
29951 37436 37439 28
29952 37436 37440 28
29953 37441 37442 28
29954 37441 37443 28
29955 37441 37444 28
29956 37441 37445 28
29957 37446 37447 28
29958 37446 37448 28
29959 37446 37449 28
29960 37446 37450 28
29961 37451 37452 28
29962 37451 37453 28
29963 37451 37454 28
29964 37451 37455 28
29965 37456 37457 28
29966 37456 37458 28
29967 37456 37459 28
29968 37456 37460 28
29969 37461 37462 28
29970 37461 37463 28
29971 37461 37464 28
29972 37461 37465 28
29973 37466 37467 28
29974 37466 37468 28
29975 37466 37469 28
29976 37466 37470 28
29977 37471 37472 28
29978 37471 37473 28
29979 37471 37474 28
29980 37471 37475 28
29981 37476 37477 28
29982 37476 37478 28
29983 37476 37479 28
29984 37476 37480 28
29985 37481 37482 28
29986 37481 37483 28
29987 37481 37484 28
29988 37481 37485 28
29989 37486 37487 28
29990 37486 37488 28
29991 37486 37489 28
29992 37486 37490 28
29993 37491 37492 28
29994 37491 37493 28
29995 37491 37494 28
29996 37491 37495 28
29997 37496 37497 28
29998 37496 37498 28
29999 37496 37499 28
30000 37496 37500 28
@<TRIPOS>CRYSIN
163.0831828235149 163.0831828235149 163.0831828235149 90 90 90 1 1
